
---------- Begin Simulation Statistics ----------
sim_seconds                                  0.086963                       # Number of seconds simulated
sim_ticks                                 86962741000                       # Number of ticks simulated
final_tick                                86962741000                       # Number of ticks from beginning of simulation (restored from checkpoints and never reset)
sim_freq                                 1000000000000                       # Frequency of simulated ticks
host_inst_rate                                1662504                       # Simulator instruction rate (inst/s)
host_op_rate                                  2739761                       # Simulator op (including micro ops) rate (op/s)
host_tick_rate                             3249647658                       # Simulator tick rate (ticks/s)
host_mem_usage                                 731320                       # Number of bytes of host memory used
host_seconds                                    26.76                       # Real time elapsed on the host
sim_insts                                    44489700                       # Number of instructions simulated
sim_ops                                      73317828                       # Number of ops (including micro ops) simulated
system.voltage_domain.voltage                       1                       # Voltage in Volts
system.clk_domain.clock                          1000                       # Clock period in ticks
system.mem_ctrls.pwrStateResidencyTicks::UNDEFINED  86962741000                       # Cumulative time (in ticks) in various power states
system.mem_ctrls.bytes_read::cpu.inst           22592                       # Number of bytes read from this memory
system.mem_ctrls.bytes_read::cpu.data          414464                       # Number of bytes read from this memory
system.mem_ctrls.bytes_read::total             437056                       # Number of bytes read from this memory
system.mem_ctrls.bytes_inst_read::cpu.inst        22592                       # Number of instructions bytes read from this memory
system.mem_ctrls.bytes_inst_read::total         22592                       # Number of instructions bytes read from this memory
system.mem_ctrls.num_reads::cpu.inst              353                       # Number of read requests responded to by this memory
system.mem_ctrls.num_reads::cpu.data             6476                       # Number of read requests responded to by this memory
system.mem_ctrls.num_reads::total                6829                       # Number of read requests responded to by this memory
system.mem_ctrls.bw_read::cpu.inst             259789                       # Total read bandwidth from this memory (bytes/s)
system.mem_ctrls.bw_read::cpu.data            4765995                       # Total read bandwidth from this memory (bytes/s)
system.mem_ctrls.bw_read::total               5025785                       # Total read bandwidth from this memory (bytes/s)
system.mem_ctrls.bw_inst_read::cpu.inst        259789                       # Instruction read bandwidth from this memory (bytes/s)
system.mem_ctrls.bw_inst_read::total           259789                       # Instruction read bandwidth from this memory (bytes/s)
system.mem_ctrls.bw_total::cpu.inst            259789                       # Total bandwidth to/from this memory (bytes/s)
system.mem_ctrls.bw_total::cpu.data           4765995                       # Total bandwidth to/from this memory (bytes/s)
system.mem_ctrls.bw_total::total              5025785                       # Total bandwidth to/from this memory (bytes/s)
system.pwrStateResidencyTicks::UNDEFINED  86962741000                       # Cumulative time (in ticks) in various power states
system.cpu_voltage_domain.voltage                   1                       # Voltage in Volts
system.cpu_clk_domain.clock                       500                       # Clock period in ticks
system.cpu.dtb.walker.pwrStateResidencyTicks::UNDEFINED  86962741000                       # Cumulative time (in ticks) in various power states
system.cpu.dtb.rdAccesses                    20877736                       # TLB accesses on read requests
system.cpu.dtb.wrAccesses                     5816528                       # TLB accesses on write requests
system.cpu.dtb.rdMisses                           166                       # TLB misses on read requests
system.cpu.dtb.wrMisses                           106                       # TLB misses on write requests
system.cpu.apic_clk_domain.clock                 8000                       # Clock period in ticks
system.cpu.interrupts.pwrStateResidencyTicks::UNDEFINED  86962741000                       # Cumulative time (in ticks) in various power states
system.cpu.itb.walker.pwrStateResidencyTicks::UNDEFINED  86962741000                       # Cumulative time (in ticks) in various power states
system.cpu.itb.rdAccesses                           0                       # TLB accesses on read requests
system.cpu.itb.wrAccesses                    59516889                       # TLB accesses on write requests
system.cpu.itb.rdMisses                             0                       # TLB misses on read requests
system.cpu.itb.wrMisses                            37                       # TLB misses on write requests
system.cpu.workload.numSyscalls                     9                       # Number of system calls
system.cpu.pwrStateResidencyTicks::ON     86962741000                       # Cumulative time (in ticks) in various power states
system.cpu.numCycles                        173925482                       # number of cpu cycles simulated
system.cpu.numWorkItemsStarted                      0                       # number of work items this cpu started
system.cpu.numWorkItemsCompleted                    0                       # number of work items this cpu completed
system.cpu.committedInsts                    44489700                       # Number of instructions committed
system.cpu.committedOps                      73317828                       # Number of ops (including micro ops) committed
system.cpu.num_int_alu_accesses              72795904                       # Number of integer alu accesses
system.cpu.num_fp_alu_accesses                   1943                       # Number of float alu accesses
system.cpu.num_vec_alu_accesses                     0                       # Number of vector alu accesses
system.cpu.num_func_calls                      944900                       # number of times a function call or return occured
system.cpu.num_conditional_control_insts      4232449                       # number of instructions that are conditional controls
system.cpu.num_int_insts                     72795904                       # number of integer instructions
system.cpu.num_fp_insts                          1943                       # number of float instructions
system.cpu.num_vec_insts                            0                       # number of vector instructions
system.cpu.num_int_register_reads           163691533                       # number of times the integer registers were read
system.cpu.num_int_register_writes           63586398                       # number of times the integer registers were written
system.cpu.num_fp_register_reads                 3767                       # number of times the floating registers were read
system.cpu.num_fp_register_writes                1480                       # number of times the floating registers were written
system.cpu.num_vec_register_reads                   0                       # number of times the vector registers were read
system.cpu.num_vec_register_writes                  0                       # number of times the vector registers were written
system.cpu.num_cc_register_reads             27636604                       # number of times the CC registers were read
system.cpu.num_cc_register_writes            24933077                       # number of times the CC registers were written
system.cpu.num_mem_refs                      26694261                       # number of memory refs
system.cpu.num_load_insts                    20877733                       # Number of load instructions
system.cpu.num_store_insts                    5816528                       # Number of store instructions
system.cpu.num_idle_cycles                          0                       # Number of idle cycles
system.cpu.num_busy_cycles                  173925482                       # Number of busy cycles
system.cpu.not_idle_fraction                        1                       # Percentage of non-idle cycles
system.cpu.idle_fraction                            0                       # Percentage of idle cycles
system.cpu.Branches                           5574733                       # Number of branches fetched
system.cpu.op_class::No_OpClass                175846      0.24%      0.24% # Class of executed instruction
system.cpu.op_class::IntAlu                  45443763     61.98%     62.22% # Class of executed instruction
system.cpu.op_class::IntMult                        4      0.00%     62.22% # Class of executed instruction
system.cpu.op_class::IntDiv                   1002994      1.37%     63.59% # Class of executed instruction
system.cpu.op_class::FloatAdd                      10      0.00%     63.59% # Class of executed instruction
system.cpu.op_class::FloatCmp                       0      0.00%     63.59% # Class of executed instruction
system.cpu.op_class::FloatCvt                       0      0.00%     63.59% # Class of executed instruction
system.cpu.op_class::FloatMult                      0      0.00%     63.59% # Class of executed instruction
system.cpu.op_class::FloatMultAcc                   0      0.00%     63.59% # Class of executed instruction
system.cpu.op_class::FloatDiv                       0      0.00%     63.59% # Class of executed instruction
system.cpu.op_class::FloatMisc                      0      0.00%     63.59% # Class of executed instruction
system.cpu.op_class::FloatSqrt                      0      0.00%     63.59% # Class of executed instruction
system.cpu.op_class::SimdAdd                      374      0.00%     63.59% # Class of executed instruction
system.cpu.op_class::SimdAddAcc                     0      0.00%     63.59% # Class of executed instruction
system.cpu.op_class::SimdAlu                       68      0.00%     63.59% # Class of executed instruction
system.cpu.op_class::SimdCmp                        0      0.00%     63.59% # Class of executed instruction
system.cpu.op_class::SimdCvt                      108      0.00%     63.59% # Class of executed instruction
system.cpu.op_class::SimdMisc                     214      0.00%     63.59% # Class of executed instruction
system.cpu.op_class::SimdMult                       0      0.00%     63.59% # Class of executed instruction
system.cpu.op_class::SimdMultAcc                    0      0.00%     63.59% # Class of executed instruction
system.cpu.op_class::SimdShift                    186      0.00%     63.59% # Class of executed instruction
system.cpu.op_class::SimdShiftAcc                   0      0.00%     63.59% # Class of executed instruction
system.cpu.op_class::SimdSqrt                       0      0.00%     63.59% # Class of executed instruction
system.cpu.op_class::SimdFloatAdd                   0      0.00%     63.59% # Class of executed instruction
system.cpu.op_class::SimdFloatAlu                   0      0.00%     63.59% # Class of executed instruction
system.cpu.op_class::SimdFloatCmp                   0      0.00%     63.59% # Class of executed instruction
system.cpu.op_class::SimdFloatCvt                   0      0.00%     63.59% # Class of executed instruction
system.cpu.op_class::SimdFloatDiv                   0      0.00%     63.59% # Class of executed instruction
system.cpu.op_class::SimdFloatMisc                  0      0.00%     63.59% # Class of executed instruction
system.cpu.op_class::SimdFloatMult                  0      0.00%     63.59% # Class of executed instruction
system.cpu.op_class::SimdFloatMultAcc               0      0.00%     63.59% # Class of executed instruction
system.cpu.op_class::SimdFloatSqrt                  0      0.00%     63.59% # Class of executed instruction
system.cpu.op_class::MemRead                 20877677     28.48%     92.07% # Class of executed instruction
system.cpu.op_class::MemWrite                 5816113      7.93%    100.00% # Class of executed instruction
system.cpu.op_class::FloatMemRead                  56      0.00%    100.00% # Class of executed instruction
system.cpu.op_class::FloatMemWrite                415      0.00%    100.00% # Class of executed instruction
system.cpu.op_class::IprAccess                      0      0.00%    100.00% # Class of executed instruction
system.cpu.op_class::InstPrefetch                   0      0.00%    100.00% # Class of executed instruction
system.cpu.op_class::total                   73317828                       # Class of executed instruction
system.cpu.dcache.tags.pwrStateResidencyTicks::UNDEFINED  86962741000                       # Cumulative time (in ticks) in various power states
system.cpu.dcache.tags.tagsinuse          1014.284965                       # Cycle average of tags in use
system.cpu.dcache.tags.total_refs            26694264                       # Total number of references to valid blocks.
system.cpu.dcache.tags.sampled_refs             36901                       # Sample count of references to valid blocks.
system.cpu.dcache.tags.avg_refs            723.402184                       # Average number of references to valid blocks.
system.cpu.dcache.tags.warmup_cycle            759000                       # Cycle when the warmup percentage was hit.
system.cpu.dcache.tags.occ_blocks::cpu.data  1014.284965                       # Average occupied blocks per requestor
system.cpu.dcache.tags.occ_percent::cpu.data     0.990513                       # Average percentage of cache occupancy
system.cpu.dcache.tags.occ_percent::total     0.990513                       # Average percentage of cache occupancy
system.cpu.dcache.tags.occ_task_id_blocks::1024         1024                       # Occupied blocks per task id
system.cpu.dcache.tags.age_task_id_blocks_1024::0           26                       # Occupied blocks per task id
system.cpu.dcache.tags.age_task_id_blocks_1024::2           34                       # Occupied blocks per task id
system.cpu.dcache.tags.age_task_id_blocks_1024::3          477                       # Occupied blocks per task id
system.cpu.dcache.tags.age_task_id_blocks_1024::4          487                       # Occupied blocks per task id
system.cpu.dcache.tags.occ_task_id_percent::1024            1                       # Percentage of cache occupancy per task id
system.cpu.dcache.tags.tag_accesses          53425429                       # Number of tag accesses
system.cpu.dcache.tags.data_accesses         53425429                       # Number of data accesses
system.cpu.dcache.pwrStateResidencyTicks::UNDEFINED  86962741000                       # Cumulative time (in ticks) in various power states
system.cpu.dcache.ReadReq_hits::cpu.data     20847430                       # number of ReadReq hits
system.cpu.dcache.ReadReq_hits::total        20847430                       # number of ReadReq hits
system.cpu.dcache.WriteReq_hits::cpu.data      5809933                       # number of WriteReq hits
system.cpu.dcache.WriteReq_hits::total        5809933                       # number of WriteReq hits
system.cpu.dcache.demand_hits::cpu.data      26657363                       # number of demand (read+write) hits
system.cpu.dcache.demand_hits::total         26657363                       # number of demand (read+write) hits
system.cpu.dcache.overall_hits::cpu.data     26657363                       # number of overall hits
system.cpu.dcache.overall_hits::total        26657363                       # number of overall hits
system.cpu.dcache.ReadReq_misses::cpu.data        30306                       # number of ReadReq misses
system.cpu.dcache.ReadReq_misses::total         30306                       # number of ReadReq misses
system.cpu.dcache.WriteReq_misses::cpu.data         6595                       # number of WriteReq misses
system.cpu.dcache.WriteReq_misses::total         6595                       # number of WriteReq misses
system.cpu.dcache.demand_misses::cpu.data        36901                       # number of demand (read+write) misses
system.cpu.dcache.demand_misses::total          36901                       # number of demand (read+write) misses
system.cpu.dcache.overall_misses::cpu.data        36901                       # number of overall misses
system.cpu.dcache.overall_misses::total         36901                       # number of overall misses
system.cpu.dcache.ReadReq_miss_latency::cpu.data    412846000                       # number of ReadReq miss cycles
system.cpu.dcache.ReadReq_miss_latency::total    412846000                       # number of ReadReq miss cycles
system.cpu.dcache.WriteReq_miss_latency::cpu.data    321740000                       # number of WriteReq miss cycles
system.cpu.dcache.WriteReq_miss_latency::total    321740000                       # number of WriteReq miss cycles
system.cpu.dcache.demand_miss_latency::cpu.data    734586000                       # number of demand (read+write) miss cycles
system.cpu.dcache.demand_miss_latency::total    734586000                       # number of demand (read+write) miss cycles
system.cpu.dcache.overall_miss_latency::cpu.data    734586000                       # number of overall miss cycles
system.cpu.dcache.overall_miss_latency::total    734586000                       # number of overall miss cycles
system.cpu.dcache.ReadReq_accesses::cpu.data     20877736                       # number of ReadReq accesses(hits+misses)
system.cpu.dcache.ReadReq_accesses::total     20877736                       # number of ReadReq accesses(hits+misses)
system.cpu.dcache.WriteReq_accesses::cpu.data      5816528                       # number of WriteReq accesses(hits+misses)
system.cpu.dcache.WriteReq_accesses::total      5816528                       # number of WriteReq accesses(hits+misses)
system.cpu.dcache.demand_accesses::cpu.data     26694264                       # number of demand (read+write) accesses
system.cpu.dcache.demand_accesses::total     26694264                       # number of demand (read+write) accesses
system.cpu.dcache.overall_accesses::cpu.data     26694264                       # number of overall (read+write) accesses
system.cpu.dcache.overall_accesses::total     26694264                       # number of overall (read+write) accesses
system.cpu.dcache.ReadReq_miss_rate::cpu.data     0.001452                       # miss rate for ReadReq accesses
system.cpu.dcache.ReadReq_miss_rate::total     0.001452                       # miss rate for ReadReq accesses
system.cpu.dcache.WriteReq_miss_rate::cpu.data     0.001134                       # miss rate for WriteReq accesses
system.cpu.dcache.WriteReq_miss_rate::total     0.001134                       # miss rate for WriteReq accesses
system.cpu.dcache.demand_miss_rate::cpu.data     0.001382                       # miss rate for demand accesses
system.cpu.dcache.demand_miss_rate::total     0.001382                       # miss rate for demand accesses
system.cpu.dcache.overall_miss_rate::cpu.data     0.001382                       # miss rate for overall accesses
system.cpu.dcache.overall_miss_rate::total     0.001382                       # miss rate for overall accesses
system.cpu.dcache.ReadReq_avg_miss_latency::cpu.data 13622.582987                       # average ReadReq miss latency
system.cpu.dcache.ReadReq_avg_miss_latency::total 13622.582987                       # average ReadReq miss latency
system.cpu.dcache.WriteReq_avg_miss_latency::cpu.data 48785.443518                       # average WriteReq miss latency
system.cpu.dcache.WriteReq_avg_miss_latency::total 48785.443518                       # average WriteReq miss latency
system.cpu.dcache.demand_avg_miss_latency::cpu.data 19906.940191                       # average overall miss latency
system.cpu.dcache.demand_avg_miss_latency::total 19906.940191                       # average overall miss latency
system.cpu.dcache.overall_avg_miss_latency::cpu.data 19906.940191                       # average overall miss latency
system.cpu.dcache.overall_avg_miss_latency::total 19906.940191                       # average overall miss latency
system.cpu.dcache.blocked_cycles::no_mshrs            0                       # number of cycles access was blocked
system.cpu.dcache.blocked_cycles::no_targets            0                       # number of cycles access was blocked
system.cpu.dcache.blocked::no_mshrs                 0                       # number of cycles access was blocked
system.cpu.dcache.blocked::no_targets               0                       # number of cycles access was blocked
system.cpu.dcache.avg_blocked_cycles::no_mshrs          nan                       # average number of cycles each access was blocked
system.cpu.dcache.avg_blocked_cycles::no_targets          nan                       # average number of cycles each access was blocked
system.cpu.dcache.writebacks::writebacks        35814                       # number of writebacks
system.cpu.dcache.writebacks::total             35814                       # number of writebacks
system.cpu.dcache.ReadReq_mshr_misses::cpu.data        30306                       # number of ReadReq MSHR misses
system.cpu.dcache.ReadReq_mshr_misses::total        30306                       # number of ReadReq MSHR misses
system.cpu.dcache.WriteReq_mshr_misses::cpu.data         6595                       # number of WriteReq MSHR misses
system.cpu.dcache.WriteReq_mshr_misses::total         6595                       # number of WriteReq MSHR misses
system.cpu.dcache.demand_mshr_misses::cpu.data        36901                       # number of demand (read+write) MSHR misses
system.cpu.dcache.demand_mshr_misses::total        36901                       # number of demand (read+write) MSHR misses
system.cpu.dcache.overall_mshr_misses::cpu.data        36901                       # number of overall MSHR misses
system.cpu.dcache.overall_mshr_misses::total        36901                       # number of overall MSHR misses
system.cpu.dcache.ReadReq_mshr_miss_latency::cpu.data    382540000                       # number of ReadReq MSHR miss cycles
system.cpu.dcache.ReadReq_mshr_miss_latency::total    382540000                       # number of ReadReq MSHR miss cycles
system.cpu.dcache.WriteReq_mshr_miss_latency::cpu.data    315145000                       # number of WriteReq MSHR miss cycles
system.cpu.dcache.WriteReq_mshr_miss_latency::total    315145000                       # number of WriteReq MSHR miss cycles
system.cpu.dcache.demand_mshr_miss_latency::cpu.data    697685000                       # number of demand (read+write) MSHR miss cycles
system.cpu.dcache.demand_mshr_miss_latency::total    697685000                       # number of demand (read+write) MSHR miss cycles
system.cpu.dcache.overall_mshr_miss_latency::cpu.data    697685000                       # number of overall MSHR miss cycles
system.cpu.dcache.overall_mshr_miss_latency::total    697685000                       # number of overall MSHR miss cycles
system.cpu.dcache.ReadReq_mshr_miss_rate::cpu.data     0.001452                       # mshr miss rate for ReadReq accesses
system.cpu.dcache.ReadReq_mshr_miss_rate::total     0.001452                       # mshr miss rate for ReadReq accesses
system.cpu.dcache.WriteReq_mshr_miss_rate::cpu.data     0.001134                       # mshr miss rate for WriteReq accesses
system.cpu.dcache.WriteReq_mshr_miss_rate::total     0.001134                       # mshr miss rate for WriteReq accesses
system.cpu.dcache.demand_mshr_miss_rate::cpu.data     0.001382                       # mshr miss rate for demand accesses
system.cpu.dcache.demand_mshr_miss_rate::total     0.001382                       # mshr miss rate for demand accesses
system.cpu.dcache.overall_mshr_miss_rate::cpu.data     0.001382                       # mshr miss rate for overall accesses
system.cpu.dcache.overall_mshr_miss_rate::total     0.001382                       # mshr miss rate for overall accesses
system.cpu.dcache.ReadReq_avg_mshr_miss_latency::cpu.data 12622.582987                       # average ReadReq mshr miss latency
system.cpu.dcache.ReadReq_avg_mshr_miss_latency::total 12622.582987                       # average ReadReq mshr miss latency
system.cpu.dcache.WriteReq_avg_mshr_miss_latency::cpu.data 47785.443518                       # average WriteReq mshr miss latency
system.cpu.dcache.WriteReq_avg_mshr_miss_latency::total 47785.443518                       # average WriteReq mshr miss latency
system.cpu.dcache.demand_avg_mshr_miss_latency::cpu.data 18906.940191                       # average overall mshr miss latency
system.cpu.dcache.demand_avg_mshr_miss_latency::total 18906.940191                       # average overall mshr miss latency
system.cpu.dcache.overall_avg_mshr_miss_latency::cpu.data 18906.940191                       # average overall mshr miss latency
system.cpu.dcache.overall_avg_mshr_miss_latency::total 18906.940191                       # average overall mshr miss latency
system.cpu.dcache.replacements                  35877                       # number of replacements
system.cpu.dtb_walker_cache.tags.pwrStateResidencyTicks::UNDEFINED  86962741000                       # Cumulative time (in ticks) in various power states
system.cpu.dtb_walker_cache.tags.tagsinuse            0                       # Cycle average of tags in use
system.cpu.dtb_walker_cache.tags.total_refs            0                       # Total number of references to valid blocks.
system.cpu.dtb_walker_cache.tags.sampled_refs            0                       # Sample count of references to valid blocks.
system.cpu.dtb_walker_cache.tags.avg_refs          nan                       # Average number of references to valid blocks.
system.cpu.dtb_walker_cache.tags.warmup_cycle            0                       # Cycle when the warmup percentage was hit.
system.cpu.dtb_walker_cache.tags.tag_accesses            0                       # Number of tag accesses
system.cpu.dtb_walker_cache.tags.data_accesses            0                       # Number of data accesses
system.cpu.dtb_walker_cache.pwrStateResidencyTicks::UNDEFINED  86962741000                       # Cumulative time (in ticks) in various power states
system.cpu.dtb_walker_cache.blocked_cycles::no_mshrs            0                       # number of cycles access was blocked
system.cpu.dtb_walker_cache.blocked_cycles::no_targets            0                       # number of cycles access was blocked
system.cpu.dtb_walker_cache.blocked::no_mshrs            0                       # number of cycles access was blocked
system.cpu.dtb_walker_cache.blocked::no_targets            0                       # number of cycles access was blocked
system.cpu.dtb_walker_cache.avg_blocked_cycles::no_mshrs          nan                       # average number of cycles each access was blocked
system.cpu.dtb_walker_cache.avg_blocked_cycles::no_targets          nan                       # average number of cycles each access was blocked
system.cpu.dtb_walker_cache.replacements            0                       # number of replacements
system.cpu.icache.tags.pwrStateResidencyTicks::UNDEFINED  86962741000                       # Cumulative time (in ticks) in various power states
system.cpu.icache.tags.tagsinuse           280.290100                       # Cycle average of tags in use
system.cpu.icache.tags.total_refs            59516889                       # Total number of references to valid blocks.
system.cpu.icache.tags.sampled_refs               353                       # Sample count of references to valid blocks.
system.cpu.icache.tags.avg_refs          168603.084986                       # Average number of references to valid blocks.
system.cpu.icache.tags.warmup_cycle            439000                       # Cycle when the warmup percentage was hit.
system.cpu.icache.tags.occ_blocks::cpu.inst   280.290100                       # Average occupied blocks per requestor
system.cpu.icache.tags.occ_percent::cpu.inst     0.547442                       # Average percentage of cache occupancy
system.cpu.icache.tags.occ_percent::total     0.547442                       # Average percentage of cache occupancy
system.cpu.icache.tags.occ_task_id_blocks::1024          310                       # Occupied blocks per task id
system.cpu.icache.tags.age_task_id_blocks_1024::0           38                       # Occupied blocks per task id
system.cpu.icache.tags.age_task_id_blocks_1024::4          272                       # Occupied blocks per task id
system.cpu.icache.tags.occ_task_id_percent::1024     0.605469                       # Percentage of cache occupancy per task id
system.cpu.icache.tags.tag_accesses         119034131                       # Number of tag accesses
system.cpu.icache.tags.data_accesses        119034131                       # Number of data accesses
system.cpu.icache.pwrStateResidencyTicks::UNDEFINED  86962741000                       # Cumulative time (in ticks) in various power states
system.cpu.icache.ReadReq_hits::cpu.inst     59516536                       # number of ReadReq hits
system.cpu.icache.ReadReq_hits::total        59516536                       # number of ReadReq hits
system.cpu.icache.demand_hits::cpu.inst      59516536                       # number of demand (read+write) hits
system.cpu.icache.demand_hits::total         59516536                       # number of demand (read+write) hits
system.cpu.icache.overall_hits::cpu.inst     59516536                       # number of overall hits
system.cpu.icache.overall_hits::total        59516536                       # number of overall hits
system.cpu.icache.ReadReq_misses::cpu.inst          353                       # number of ReadReq misses
system.cpu.icache.ReadReq_misses::total           353                       # number of ReadReq misses
system.cpu.icache.demand_misses::cpu.inst          353                       # number of demand (read+write) misses
system.cpu.icache.demand_misses::total            353                       # number of demand (read+write) misses
system.cpu.icache.overall_misses::cpu.inst          353                       # number of overall misses
system.cpu.icache.overall_misses::total           353                       # number of overall misses
system.cpu.icache.ReadReq_miss_latency::cpu.inst     54259000                       # number of ReadReq miss cycles
system.cpu.icache.ReadReq_miss_latency::total     54259000                       # number of ReadReq miss cycles
system.cpu.icache.demand_miss_latency::cpu.inst     54259000                       # number of demand (read+write) miss cycles
system.cpu.icache.demand_miss_latency::total     54259000                       # number of demand (read+write) miss cycles
system.cpu.icache.overall_miss_latency::cpu.inst     54259000                       # number of overall miss cycles
system.cpu.icache.overall_miss_latency::total     54259000                       # number of overall miss cycles
system.cpu.icache.ReadReq_accesses::cpu.inst     59516889                       # number of ReadReq accesses(hits+misses)
system.cpu.icache.ReadReq_accesses::total     59516889                       # number of ReadReq accesses(hits+misses)
system.cpu.icache.demand_accesses::cpu.inst     59516889                       # number of demand (read+write) accesses
system.cpu.icache.demand_accesses::total     59516889                       # number of demand (read+write) accesses
system.cpu.icache.overall_accesses::cpu.inst     59516889                       # number of overall (read+write) accesses
system.cpu.icache.overall_accesses::total     59516889                       # number of overall (read+write) accesses
system.cpu.icache.ReadReq_miss_rate::cpu.inst     0.000006                       # miss rate for ReadReq accesses
system.cpu.icache.ReadReq_miss_rate::total     0.000006                       # miss rate for ReadReq accesses
system.cpu.icache.demand_miss_rate::cpu.inst     0.000006                       # miss rate for demand accesses
system.cpu.icache.demand_miss_rate::total     0.000006                       # miss rate for demand accesses
system.cpu.icache.overall_miss_rate::cpu.inst     0.000006                       # miss rate for overall accesses
system.cpu.icache.overall_miss_rate::total     0.000006                       # miss rate for overall accesses
system.cpu.icache.ReadReq_avg_miss_latency::cpu.inst 153708.215297                       # average ReadReq miss latency
system.cpu.icache.ReadReq_avg_miss_latency::total 153708.215297                       # average ReadReq miss latency
system.cpu.icache.demand_avg_miss_latency::cpu.inst 153708.215297                       # average overall miss latency
system.cpu.icache.demand_avg_miss_latency::total 153708.215297                       # average overall miss latency
system.cpu.icache.overall_avg_miss_latency::cpu.inst 153708.215297                       # average overall miss latency
system.cpu.icache.overall_avg_miss_latency::total 153708.215297                       # average overall miss latency
system.cpu.icache.blocked_cycles::no_mshrs            0                       # number of cycles access was blocked
system.cpu.icache.blocked_cycles::no_targets            0                       # number of cycles access was blocked
system.cpu.icache.blocked::no_mshrs                 0                       # number of cycles access was blocked
system.cpu.icache.blocked::no_targets               0                       # number of cycles access was blocked
system.cpu.icache.avg_blocked_cycles::no_mshrs          nan                       # average number of cycles each access was blocked
system.cpu.icache.avg_blocked_cycles::no_targets          nan                       # average number of cycles each access was blocked
system.cpu.icache.writebacks::writebacks           43                       # number of writebacks
system.cpu.icache.writebacks::total                43                       # number of writebacks
system.cpu.icache.ReadReq_mshr_misses::cpu.inst          353                       # number of ReadReq MSHR misses
system.cpu.icache.ReadReq_mshr_misses::total          353                       # number of ReadReq MSHR misses
system.cpu.icache.demand_mshr_misses::cpu.inst          353                       # number of demand (read+write) MSHR misses
system.cpu.icache.demand_mshr_misses::total          353                       # number of demand (read+write) MSHR misses
system.cpu.icache.overall_mshr_misses::cpu.inst          353                       # number of overall MSHR misses
system.cpu.icache.overall_mshr_misses::total          353                       # number of overall MSHR misses
system.cpu.icache.ReadReq_mshr_miss_latency::cpu.inst     53906000                       # number of ReadReq MSHR miss cycles
system.cpu.icache.ReadReq_mshr_miss_latency::total     53906000                       # number of ReadReq MSHR miss cycles
system.cpu.icache.demand_mshr_miss_latency::cpu.inst     53906000                       # number of demand (read+write) MSHR miss cycles
system.cpu.icache.demand_mshr_miss_latency::total     53906000                       # number of demand (read+write) MSHR miss cycles
system.cpu.icache.overall_mshr_miss_latency::cpu.inst     53906000                       # number of overall MSHR miss cycles
system.cpu.icache.overall_mshr_miss_latency::total     53906000                       # number of overall MSHR miss cycles
system.cpu.icache.ReadReq_mshr_miss_rate::cpu.inst     0.000006                       # mshr miss rate for ReadReq accesses
system.cpu.icache.ReadReq_mshr_miss_rate::total     0.000006                       # mshr miss rate for ReadReq accesses
system.cpu.icache.demand_mshr_miss_rate::cpu.inst     0.000006                       # mshr miss rate for demand accesses
system.cpu.icache.demand_mshr_miss_rate::total     0.000006                       # mshr miss rate for demand accesses
system.cpu.icache.overall_mshr_miss_rate::cpu.inst     0.000006                       # mshr miss rate for overall accesses
system.cpu.icache.overall_mshr_miss_rate::total     0.000006                       # mshr miss rate for overall accesses
system.cpu.icache.ReadReq_avg_mshr_miss_latency::cpu.inst 152708.215297                       # average ReadReq mshr miss latency
system.cpu.icache.ReadReq_avg_mshr_miss_latency::total 152708.215297                       # average ReadReq mshr miss latency
system.cpu.icache.demand_avg_mshr_miss_latency::cpu.inst 152708.215297                       # average overall mshr miss latency
system.cpu.icache.demand_avg_mshr_miss_latency::total 152708.215297                       # average overall mshr miss latency
system.cpu.icache.overall_avg_mshr_miss_latency::cpu.inst 152708.215297                       # average overall mshr miss latency
system.cpu.icache.overall_avg_mshr_miss_latency::total 152708.215297                       # average overall mshr miss latency
system.cpu.icache.replacements                     43                       # number of replacements
system.cpu.itb_walker_cache.tags.pwrStateResidencyTicks::UNDEFINED  86962741000                       # Cumulative time (in ticks) in various power states
system.cpu.itb_walker_cache.tags.tagsinuse            0                       # Cycle average of tags in use
system.cpu.itb_walker_cache.tags.total_refs            0                       # Total number of references to valid blocks.
system.cpu.itb_walker_cache.tags.sampled_refs            0                       # Sample count of references to valid blocks.
system.cpu.itb_walker_cache.tags.avg_refs          nan                       # Average number of references to valid blocks.
system.cpu.itb_walker_cache.tags.warmup_cycle            0                       # Cycle when the warmup percentage was hit.
system.cpu.itb_walker_cache.tags.tag_accesses            0                       # Number of tag accesses
system.cpu.itb_walker_cache.tags.data_accesses            0                       # Number of data accesses
system.cpu.itb_walker_cache.pwrStateResidencyTicks::UNDEFINED  86962741000                       # Cumulative time (in ticks) in various power states
system.cpu.itb_walker_cache.blocked_cycles::no_mshrs            0                       # number of cycles access was blocked
system.cpu.itb_walker_cache.blocked_cycles::no_targets            0                       # number of cycles access was blocked
system.cpu.itb_walker_cache.blocked::no_mshrs            0                       # number of cycles access was blocked
system.cpu.itb_walker_cache.blocked::no_targets            0                       # number of cycles access was blocked
system.cpu.itb_walker_cache.avg_blocked_cycles::no_mshrs          nan                       # average number of cycles each access was blocked
system.cpu.itb_walker_cache.avg_blocked_cycles::no_targets          nan                       # average number of cycles each access was blocked
system.cpu.itb_walker_cache.replacements            0                       # number of replacements
system.l2.tags.pwrStateResidencyTicks::UNDEFINED  86962741000                       # Cumulative time (in ticks) in various power states
system.l2.tags.tagsinuse                  6329.816217                       # Cycle average of tags in use
system.l2.tags.total_refs                       73174                       # Total number of references to valid blocks.
system.l2.tags.sampled_refs                      6829                       # Sample count of references to valid blocks.
system.l2.tags.avg_refs                     10.715185                       # Average number of references to valid blocks.
system.l2.tags.warmup_cycle                    428500                       # Cycle when the warmup percentage was hit.
system.l2.tags.occ_blocks::cpu.inst        314.264225                       # Average occupied blocks per requestor
system.l2.tags.occ_blocks::cpu.data       6015.551992                       # Average occupied blocks per requestor
system.l2.tags.occ_percent::cpu.inst         0.009591                       # Average percentage of cache occupancy
system.l2.tags.occ_percent::cpu.data         0.183580                       # Average percentage of cache occupancy
system.l2.tags.occ_percent::total            0.193171                       # Average percentage of cache occupancy
system.l2.tags.occ_task_id_blocks::1024          6829                       # Occupied blocks per task id
system.l2.tags.age_task_id_blocks_1024::0           52                       # Occupied blocks per task id
system.l2.tags.age_task_id_blocks_1024::3            1                       # Occupied blocks per task id
system.l2.tags.age_task_id_blocks_1024::4         6776                       # Occupied blocks per task id
system.l2.tags.occ_task_id_percent::1024     0.208405                       # Percentage of cache occupancy per task id
system.l2.tags.tag_accesses                    592221                       # Number of tag accesses
system.l2.tags.data_accesses                   592221                       # Number of data accesses
system.l2.pwrStateResidencyTicks::UNDEFINED  86962741000                       # Cumulative time (in ticks) in various power states
system.l2.WritebackDirty_hits::writebacks        35814                       # number of WritebackDirty hits
system.l2.WritebackDirty_hits::total            35814                       # number of WritebackDirty hits
system.l2.WritebackClean_hits::writebacks           43                       # number of WritebackClean hits
system.l2.WritebackClean_hits::total               43                       # number of WritebackClean hits
system.l2.ReadExReq_hits::cpu.data                216                       # number of ReadExReq hits
system.l2.ReadExReq_hits::total                   216                       # number of ReadExReq hits
system.l2.ReadSharedReq_hits::cpu.data          30209                       # number of ReadSharedReq hits
system.l2.ReadSharedReq_hits::total             30209                       # number of ReadSharedReq hits
system.l2.demand_hits::cpu.data                 30425                       # number of demand (read+write) hits
system.l2.demand_hits::total                    30425                       # number of demand (read+write) hits
system.l2.overall_hits::cpu.data                30425                       # number of overall hits
system.l2.overall_hits::total                   30425                       # number of overall hits
system.l2.ReadExReq_misses::cpu.data             6379                       # number of ReadExReq misses
system.l2.ReadExReq_misses::total                6379                       # number of ReadExReq misses
system.l2.ReadCleanReq_misses::cpu.inst           353                       # number of ReadCleanReq misses
system.l2.ReadCleanReq_misses::total              353                       # number of ReadCleanReq misses
system.l2.ReadSharedReq_misses::cpu.data           97                       # number of ReadSharedReq misses
system.l2.ReadSharedReq_misses::total              97                       # number of ReadSharedReq misses
system.l2.demand_misses::cpu.inst                 353                       # number of demand (read+write) misses
system.l2.demand_misses::cpu.data                6476                       # number of demand (read+write) misses
system.l2.demand_misses::total                   6829                       # number of demand (read+write) misses
system.l2.overall_misses::cpu.inst                353                       # number of overall misses
system.l2.overall_misses::cpu.data               6476                       # number of overall misses
system.l2.overall_misses::total                  6829                       # number of overall misses
system.l2.ReadExReq_miss_latency::cpu.data    302984500                       # number of ReadExReq miss cycles
system.l2.ReadExReq_miss_latency::total     302984500                       # number of ReadExReq miss cycles
system.l2.ReadCleanReq_miss_latency::cpu.inst     53373500                       # number of ReadCleanReq miss cycles
system.l2.ReadCleanReq_miss_latency::total     53373500                       # number of ReadCleanReq miss cycles
system.l2.ReadSharedReq_miss_latency::cpu.data     19886500                       # number of ReadSharedReq miss cycles
system.l2.ReadSharedReq_miss_latency::total     19886500                       # number of ReadSharedReq miss cycles
system.l2.demand_miss_latency::cpu.inst      53373500                       # number of demand (read+write) miss cycles
system.l2.demand_miss_latency::cpu.data     322871000                       # number of demand (read+write) miss cycles
system.l2.demand_miss_latency::total        376244500                       # number of demand (read+write) miss cycles
system.l2.overall_miss_latency::cpu.inst     53373500                       # number of overall miss cycles
system.l2.overall_miss_latency::cpu.data    322871000                       # number of overall miss cycles
system.l2.overall_miss_latency::total       376244500                       # number of overall miss cycles
system.l2.WritebackDirty_accesses::writebacks        35814                       # number of WritebackDirty accesses(hits+misses)
system.l2.WritebackDirty_accesses::total        35814                       # number of WritebackDirty accesses(hits+misses)
system.l2.WritebackClean_accesses::writebacks           43                       # number of WritebackClean accesses(hits+misses)
system.l2.WritebackClean_accesses::total           43                       # number of WritebackClean accesses(hits+misses)
system.l2.ReadExReq_accesses::cpu.data           6595                       # number of ReadExReq accesses(hits+misses)
system.l2.ReadExReq_accesses::total              6595                       # number of ReadExReq accesses(hits+misses)
system.l2.ReadCleanReq_accesses::cpu.inst          353                       # number of ReadCleanReq accesses(hits+misses)
system.l2.ReadCleanReq_accesses::total            353                       # number of ReadCleanReq accesses(hits+misses)
system.l2.ReadSharedReq_accesses::cpu.data        30306                       # number of ReadSharedReq accesses(hits+misses)
system.l2.ReadSharedReq_accesses::total         30306                       # number of ReadSharedReq accesses(hits+misses)
system.l2.demand_accesses::cpu.inst               353                       # number of demand (read+write) accesses
system.l2.demand_accesses::cpu.data             36901                       # number of demand (read+write) accesses
system.l2.demand_accesses::total                37254                       # number of demand (read+write) accesses
system.l2.overall_accesses::cpu.inst              353                       # number of overall (read+write) accesses
system.l2.overall_accesses::cpu.data            36901                       # number of overall (read+write) accesses
system.l2.overall_accesses::total               37254                       # number of overall (read+write) accesses
system.l2.ReadExReq_miss_rate::cpu.data      0.967248                       # miss rate for ReadExReq accesses
system.l2.ReadExReq_miss_rate::total         0.967248                       # miss rate for ReadExReq accesses
system.l2.ReadCleanReq_miss_rate::cpu.inst            1                       # miss rate for ReadCleanReq accesses
system.l2.ReadCleanReq_miss_rate::total             1                       # miss rate for ReadCleanReq accesses
system.l2.ReadSharedReq_miss_rate::cpu.data     0.003201                       # miss rate for ReadSharedReq accesses
system.l2.ReadSharedReq_miss_rate::total     0.003201                       # miss rate for ReadSharedReq accesses
system.l2.demand_miss_rate::cpu.inst                1                       # miss rate for demand accesses
system.l2.demand_miss_rate::cpu.data         0.175497                       # miss rate for demand accesses
system.l2.demand_miss_rate::total            0.183309                       # miss rate for demand accesses
system.l2.overall_miss_rate::cpu.inst               1                       # miss rate for overall accesses
system.l2.overall_miss_rate::cpu.data        0.175497                       # miss rate for overall accesses
system.l2.overall_miss_rate::total           0.183309                       # miss rate for overall accesses
system.l2.ReadExReq_avg_miss_latency::cpu.data 47497.178241                       # average ReadExReq miss latency
system.l2.ReadExReq_avg_miss_latency::total 47497.178241                       # average ReadExReq miss latency
system.l2.ReadCleanReq_avg_miss_latency::cpu.inst 151199.716714                       # average ReadCleanReq miss latency
system.l2.ReadCleanReq_avg_miss_latency::total 151199.716714                       # average ReadCleanReq miss latency
system.l2.ReadSharedReq_avg_miss_latency::cpu.data 205015.463918                       # average ReadSharedReq miss latency
system.l2.ReadSharedReq_avg_miss_latency::total 205015.463918                       # average ReadSharedReq miss latency
system.l2.demand_avg_miss_latency::cpu.inst 151199.716714                       # average overall miss latency
system.l2.demand_avg_miss_latency::cpu.data 49856.547251                       # average overall miss latency
system.l2.demand_avg_miss_latency::total 55095.109094                       # average overall miss latency
system.l2.overall_avg_miss_latency::cpu.inst 151199.716714                       # average overall miss latency
system.l2.overall_avg_miss_latency::cpu.data 49856.547251                       # average overall miss latency
system.l2.overall_avg_miss_latency::total 55095.109094                       # average overall miss latency
system.l2.blocked_cycles::no_mshrs                  0                       # number of cycles access was blocked
system.l2.blocked_cycles::no_targets                0                       # number of cycles access was blocked
system.l2.blocked::no_mshrs                         0                       # number of cycles access was blocked
system.l2.blocked::no_targets                       0                       # number of cycles access was blocked
system.l2.avg_blocked_cycles::no_mshrs            nan                       # average number of cycles each access was blocked
system.l2.avg_blocked_cycles::no_targets          nan                       # average number of cycles each access was blocked
system.l2.ReadExReq_mshr_misses::cpu.data         6379                       # number of ReadExReq MSHR misses
system.l2.ReadExReq_mshr_misses::total           6379                       # number of ReadExReq MSHR misses
system.l2.ReadCleanReq_mshr_misses::cpu.inst          353                       # number of ReadCleanReq MSHR misses
system.l2.ReadCleanReq_mshr_misses::total          353                       # number of ReadCleanReq MSHR misses
system.l2.ReadSharedReq_mshr_misses::cpu.data           97                       # number of ReadSharedReq MSHR misses
system.l2.ReadSharedReq_mshr_misses::total           97                       # number of ReadSharedReq MSHR misses
system.l2.demand_mshr_misses::cpu.inst            353                       # number of demand (read+write) MSHR misses
system.l2.demand_mshr_misses::cpu.data           6476                       # number of demand (read+write) MSHR misses
system.l2.demand_mshr_misses::total              6829                       # number of demand (read+write) MSHR misses
system.l2.overall_mshr_misses::cpu.inst           353                       # number of overall MSHR misses
system.l2.overall_mshr_misses::cpu.data          6476                       # number of overall MSHR misses
system.l2.overall_mshr_misses::total             6829                       # number of overall MSHR misses
system.l2.ReadExReq_mshr_miss_latency::cpu.data    239194500                       # number of ReadExReq MSHR miss cycles
system.l2.ReadExReq_mshr_miss_latency::total    239194500                       # number of ReadExReq MSHR miss cycles
system.l2.ReadCleanReq_mshr_miss_latency::cpu.inst     49843500                       # number of ReadCleanReq MSHR miss cycles
system.l2.ReadCleanReq_mshr_miss_latency::total     49843500                       # number of ReadCleanReq MSHR miss cycles
system.l2.ReadSharedReq_mshr_miss_latency::cpu.data     18916500                       # number of ReadSharedReq MSHR miss cycles
system.l2.ReadSharedReq_mshr_miss_latency::total     18916500                       # number of ReadSharedReq MSHR miss cycles
system.l2.demand_mshr_miss_latency::cpu.inst     49843500                       # number of demand (read+write) MSHR miss cycles
system.l2.demand_mshr_miss_latency::cpu.data    258111000                       # number of demand (read+write) MSHR miss cycles
system.l2.demand_mshr_miss_latency::total    307954500                       # number of demand (read+write) MSHR miss cycles
system.l2.overall_mshr_miss_latency::cpu.inst     49843500                       # number of overall MSHR miss cycles
system.l2.overall_mshr_miss_latency::cpu.data    258111000                       # number of overall MSHR miss cycles
system.l2.overall_mshr_miss_latency::total    307954500                       # number of overall MSHR miss cycles
system.l2.ReadExReq_mshr_miss_rate::cpu.data     0.967248                       # mshr miss rate for ReadExReq accesses
system.l2.ReadExReq_mshr_miss_rate::total     0.967248                       # mshr miss rate for ReadExReq accesses
system.l2.ReadCleanReq_mshr_miss_rate::cpu.inst            1                       # mshr miss rate for ReadCleanReq accesses
system.l2.ReadCleanReq_mshr_miss_rate::total            1                       # mshr miss rate for ReadCleanReq accesses
system.l2.ReadSharedReq_mshr_miss_rate::cpu.data     0.003201                       # mshr miss rate for ReadSharedReq accesses
system.l2.ReadSharedReq_mshr_miss_rate::total     0.003201                       # mshr miss rate for ReadSharedReq accesses
system.l2.demand_mshr_miss_rate::cpu.inst            1                       # mshr miss rate for demand accesses
system.l2.demand_mshr_miss_rate::cpu.data     0.175497                       # mshr miss rate for demand accesses
system.l2.demand_mshr_miss_rate::total       0.183309                       # mshr miss rate for demand accesses
system.l2.overall_mshr_miss_rate::cpu.inst            1                       # mshr miss rate for overall accesses
system.l2.overall_mshr_miss_rate::cpu.data     0.175497                       # mshr miss rate for overall accesses
system.l2.overall_mshr_miss_rate::total      0.183309                       # mshr miss rate for overall accesses
system.l2.ReadExReq_avg_mshr_miss_latency::cpu.data 37497.178241                       # average ReadExReq mshr miss latency
system.l2.ReadExReq_avg_mshr_miss_latency::total 37497.178241                       # average ReadExReq mshr miss latency
system.l2.ReadCleanReq_avg_mshr_miss_latency::cpu.inst 141199.716714                       # average ReadCleanReq mshr miss latency
system.l2.ReadCleanReq_avg_mshr_miss_latency::total 141199.716714                       # average ReadCleanReq mshr miss latency
system.l2.ReadSharedReq_avg_mshr_miss_latency::cpu.data 195015.463918                       # average ReadSharedReq mshr miss latency
system.l2.ReadSharedReq_avg_mshr_miss_latency::total 195015.463918                       # average ReadSharedReq mshr miss latency
system.l2.demand_avg_mshr_miss_latency::cpu.inst 141199.716714                       # average overall mshr miss latency
system.l2.demand_avg_mshr_miss_latency::cpu.data 39856.547251                       # average overall mshr miss latency
system.l2.demand_avg_mshr_miss_latency::total 45095.109094                       # average overall mshr miss latency
system.l2.overall_avg_mshr_miss_latency::cpu.inst 141199.716714                       # average overall mshr miss latency
system.l2.overall_avg_mshr_miss_latency::cpu.data 39856.547251                       # average overall mshr miss latency
system.l2.overall_avg_mshr_miss_latency::total 45095.109094                       # average overall mshr miss latency
system.l2.replacements                              0                       # number of replacements
system.l3.tags.pwrStateResidencyTicks::UNDEFINED  86962741000                       # Cumulative time (in ticks) in various power states
system.l3.tags.tagsinuse                  6329.817042                       # Cycle average of tags in use
system.l3.tags.total_refs                        6829                       # Total number of references to valid blocks.
system.l3.tags.sampled_refs                      6829                       # Sample count of references to valid blocks.
system.l3.tags.avg_refs                             1                       # Average number of references to valid blocks.
system.l3.tags.warmup_cycle                    418000                       # Cycle when the warmup percentage was hit.
system.l3.tags.occ_blocks::cpu.inst        314.264268                       # Average occupied blocks per requestor
system.l3.tags.occ_blocks::cpu.data       6015.552774                       # Average occupied blocks per requestor
system.l3.tags.occ_percent::cpu.inst         0.001199                       # Average percentage of cache occupancy
system.l3.tags.occ_percent::cpu.data         0.022948                       # Average percentage of cache occupancy
system.l3.tags.occ_percent::total            0.024146                       # Average percentage of cache occupancy
system.l3.tags.occ_task_id_blocks::1024          6829                       # Occupied blocks per task id
system.l3.tags.age_task_id_blocks_1024::0           52                       # Occupied blocks per task id
system.l3.tags.age_task_id_blocks_1024::3            1                       # Occupied blocks per task id
system.l3.tags.age_task_id_blocks_1024::4         6776                       # Occupied blocks per task id
system.l3.tags.occ_task_id_percent::1024     0.026051                       # Percentage of cache occupancy per task id
system.l3.tags.tag_accesses                     20487                       # Number of tag accesses
system.l3.tags.data_accesses                    20487                       # Number of data accesses
system.l3.pwrStateResidencyTicks::UNDEFINED  86962741000                       # Cumulative time (in ticks) in various power states
system.l3.ReadExReq_misses::cpu.data             6379                       # number of ReadExReq misses
system.l3.ReadExReq_misses::total                6379                       # number of ReadExReq misses
system.l3.ReadSharedReq_misses::cpu.inst          353                       # number of ReadSharedReq misses
system.l3.ReadSharedReq_misses::cpu.data           97                       # number of ReadSharedReq misses
system.l3.ReadSharedReq_misses::total             450                       # number of ReadSharedReq misses
system.l3.demand_misses::cpu.inst                 353                       # number of demand (read+write) misses
system.l3.demand_misses::cpu.data                6476                       # number of demand (read+write) misses
system.l3.demand_misses::total                   6829                       # number of demand (read+write) misses
system.l3.overall_misses::cpu.inst                353                       # number of overall misses
system.l3.overall_misses::cpu.data               6476                       # number of overall misses
system.l3.overall_misses::total                  6829                       # number of overall misses
system.l3.ReadExReq_miss_latency::cpu.data    169025500                       # number of ReadExReq miss cycles
system.l3.ReadExReq_miss_latency::total     169025500                       # number of ReadExReq miss cycles
system.l3.ReadSharedReq_miss_latency::cpu.inst     45960500                       # number of ReadSharedReq miss cycles
system.l3.ReadSharedReq_miss_latency::cpu.data     17849500                       # number of ReadSharedReq miss cycles
system.l3.ReadSharedReq_miss_latency::total     63810000                       # number of ReadSharedReq miss cycles
system.l3.demand_miss_latency::cpu.inst      45960500                       # number of demand (read+write) miss cycles
system.l3.demand_miss_latency::cpu.data     186875000                       # number of demand (read+write) miss cycles
system.l3.demand_miss_latency::total        232835500                       # number of demand (read+write) miss cycles
system.l3.overall_miss_latency::cpu.inst     45960500                       # number of overall miss cycles
system.l3.overall_miss_latency::cpu.data    186875000                       # number of overall miss cycles
system.l3.overall_miss_latency::total       232835500                       # number of overall miss cycles
system.l3.ReadExReq_accesses::cpu.data           6379                       # number of ReadExReq accesses(hits+misses)
system.l3.ReadExReq_accesses::total              6379                       # number of ReadExReq accesses(hits+misses)
system.l3.ReadSharedReq_accesses::cpu.inst          353                       # number of ReadSharedReq accesses(hits+misses)
system.l3.ReadSharedReq_accesses::cpu.data           97                       # number of ReadSharedReq accesses(hits+misses)
system.l3.ReadSharedReq_accesses::total           450                       # number of ReadSharedReq accesses(hits+misses)
system.l3.demand_accesses::cpu.inst               353                       # number of demand (read+write) accesses
system.l3.demand_accesses::cpu.data              6476                       # number of demand (read+write) accesses
system.l3.demand_accesses::total                 6829                       # number of demand (read+write) accesses
system.l3.overall_accesses::cpu.inst              353                       # number of overall (read+write) accesses
system.l3.overall_accesses::cpu.data             6476                       # number of overall (read+write) accesses
system.l3.overall_accesses::total                6829                       # number of overall (read+write) accesses
system.l3.ReadExReq_miss_rate::cpu.data             1                       # miss rate for ReadExReq accesses
system.l3.ReadExReq_miss_rate::total                1                       # miss rate for ReadExReq accesses
system.l3.ReadSharedReq_miss_rate::cpu.inst            1                       # miss rate for ReadSharedReq accesses
system.l3.ReadSharedReq_miss_rate::cpu.data            1                       # miss rate for ReadSharedReq accesses
system.l3.ReadSharedReq_miss_rate::total            1                       # miss rate for ReadSharedReq accesses
system.l3.demand_miss_rate::cpu.inst                1                       # miss rate for demand accesses
system.l3.demand_miss_rate::cpu.data                1                       # miss rate for demand accesses
system.l3.demand_miss_rate::total                   1                       # miss rate for demand accesses
system.l3.overall_miss_rate::cpu.inst               1                       # miss rate for overall accesses
system.l3.overall_miss_rate::cpu.data               1                       # miss rate for overall accesses
system.l3.overall_miss_rate::total                  1                       # miss rate for overall accesses
system.l3.ReadExReq_avg_miss_latency::cpu.data 26497.178241                       # average ReadExReq miss latency
system.l3.ReadExReq_avg_miss_latency::total 26497.178241                       # average ReadExReq miss latency
system.l3.ReadSharedReq_avg_miss_latency::cpu.inst 130199.716714                       # average ReadSharedReq miss latency
system.l3.ReadSharedReq_avg_miss_latency::cpu.data 184015.463918                       # average ReadSharedReq miss latency
system.l3.ReadSharedReq_avg_miss_latency::total       141800                       # average ReadSharedReq miss latency
system.l3.demand_avg_miss_latency::cpu.inst 130199.716714                       # average overall miss latency
system.l3.demand_avg_miss_latency::cpu.data 28856.547251                       # average overall miss latency
system.l3.demand_avg_miss_latency::total 34095.109094                       # average overall miss latency
system.l3.overall_avg_miss_latency::cpu.inst 130199.716714                       # average overall miss latency
system.l3.overall_avg_miss_latency::cpu.data 28856.547251                       # average overall miss latency
system.l3.overall_avg_miss_latency::total 34095.109094                       # average overall miss latency
system.l3.blocked_cycles::no_mshrs                  0                       # number of cycles access was blocked
system.l3.blocked_cycles::no_targets                0                       # number of cycles access was blocked
system.l3.blocked::no_mshrs                         0                       # number of cycles access was blocked
system.l3.blocked::no_targets                       0                       # number of cycles access was blocked
system.l3.avg_blocked_cycles::no_mshrs            nan                       # average number of cycles each access was blocked
system.l3.avg_blocked_cycles::no_targets          nan                       # average number of cycles each access was blocked
system.l3.ReadExReq_mshr_misses::cpu.data         6379                       # number of ReadExReq MSHR misses
system.l3.ReadExReq_mshr_misses::total           6379                       # number of ReadExReq MSHR misses
system.l3.ReadSharedReq_mshr_misses::cpu.inst          353                       # number of ReadSharedReq MSHR misses
system.l3.ReadSharedReq_mshr_misses::cpu.data           97                       # number of ReadSharedReq MSHR misses
system.l3.ReadSharedReq_mshr_misses::total          450                       # number of ReadSharedReq MSHR misses
system.l3.demand_mshr_misses::cpu.inst            353                       # number of demand (read+write) MSHR misses
system.l3.demand_mshr_misses::cpu.data           6476                       # number of demand (read+write) MSHR misses
system.l3.demand_mshr_misses::total              6829                       # number of demand (read+write) MSHR misses
system.l3.overall_mshr_misses::cpu.inst           353                       # number of overall MSHR misses
system.l3.overall_mshr_misses::cpu.data          6476                       # number of overall MSHR misses
system.l3.overall_mshr_misses::total             6829                       # number of overall MSHR misses
system.l3.ReadExReq_mshr_miss_latency::cpu.data    105235500                       # number of ReadExReq MSHR miss cycles
system.l3.ReadExReq_mshr_miss_latency::total    105235500                       # number of ReadExReq MSHR miss cycles
system.l3.ReadSharedReq_mshr_miss_latency::cpu.inst     42430500                       # number of ReadSharedReq MSHR miss cycles
system.l3.ReadSharedReq_mshr_miss_latency::cpu.data     16879500                       # number of ReadSharedReq MSHR miss cycles
system.l3.ReadSharedReq_mshr_miss_latency::total     59310000                       # number of ReadSharedReq MSHR miss cycles
system.l3.demand_mshr_miss_latency::cpu.inst     42430500                       # number of demand (read+write) MSHR miss cycles
system.l3.demand_mshr_miss_latency::cpu.data    122115000                       # number of demand (read+write) MSHR miss cycles
system.l3.demand_mshr_miss_latency::total    164545500                       # number of demand (read+write) MSHR miss cycles
system.l3.overall_mshr_miss_latency::cpu.inst     42430500                       # number of overall MSHR miss cycles
system.l3.overall_mshr_miss_latency::cpu.data    122115000                       # number of overall MSHR miss cycles
system.l3.overall_mshr_miss_latency::total    164545500                       # number of overall MSHR miss cycles
system.l3.ReadExReq_mshr_miss_rate::cpu.data            1                       # mshr miss rate for ReadExReq accesses
system.l3.ReadExReq_mshr_miss_rate::total            1                       # mshr miss rate for ReadExReq accesses
system.l3.ReadSharedReq_mshr_miss_rate::cpu.inst            1                       # mshr miss rate for ReadSharedReq accesses
system.l3.ReadSharedReq_mshr_miss_rate::cpu.data            1                       # mshr miss rate for ReadSharedReq accesses
system.l3.ReadSharedReq_mshr_miss_rate::total            1                       # mshr miss rate for ReadSharedReq accesses
system.l3.demand_mshr_miss_rate::cpu.inst            1                       # mshr miss rate for demand accesses
system.l3.demand_mshr_miss_rate::cpu.data            1                       # mshr miss rate for demand accesses
system.l3.demand_mshr_miss_rate::total              1                       # mshr miss rate for demand accesses
system.l3.overall_mshr_miss_rate::cpu.inst            1                       # mshr miss rate for overall accesses
system.l3.overall_mshr_miss_rate::cpu.data            1                       # mshr miss rate for overall accesses
system.l3.overall_mshr_miss_rate::total             1                       # mshr miss rate for overall accesses
system.l3.ReadExReq_avg_mshr_miss_latency::cpu.data 16497.178241                       # average ReadExReq mshr miss latency
system.l3.ReadExReq_avg_mshr_miss_latency::total 16497.178241                       # average ReadExReq mshr miss latency
system.l3.ReadSharedReq_avg_mshr_miss_latency::cpu.inst 120199.716714                       # average ReadSharedReq mshr miss latency
system.l3.ReadSharedReq_avg_mshr_miss_latency::cpu.data 174015.463918                       # average ReadSharedReq mshr miss latency
system.l3.ReadSharedReq_avg_mshr_miss_latency::total       131800                       # average ReadSharedReq mshr miss latency
system.l3.demand_avg_mshr_miss_latency::cpu.inst 120199.716714                       # average overall mshr miss latency
system.l3.demand_avg_mshr_miss_latency::cpu.data 18856.547251                       # average overall mshr miss latency
system.l3.demand_avg_mshr_miss_latency::total 24095.109094                       # average overall mshr miss latency
system.l3.overall_avg_mshr_miss_latency::cpu.inst 120199.716714                       # average overall mshr miss latency
system.l3.overall_avg_mshr_miss_latency::cpu.data 18856.547251                       # average overall mshr miss latency
system.l3.overall_avg_mshr_miss_latency::total 24095.109094                       # average overall mshr miss latency
system.l3.replacements                              0                       # number of replacements
system.membus.snoop_filter.tot_requests          6829                       # Total number of requests made to the snoop filter.
system.membus.snoop_filter.hit_single_requests            0                       # Number of requests hitting in the snoop filter with a single holder of the requested data.
system.membus.snoop_filter.hit_multi_requests            0                       # Number of requests hitting in the snoop filter with multiple (>1) holders of the requested data.
system.membus.snoop_filter.tot_snoops               0                       # Total number of snoops made to the snoop filter.
system.membus.snoop_filter.hit_single_snoops            0                       # Number of snoops hitting in the snoop filter with a single holder of the requested data.
system.membus.snoop_filter.hit_multi_snoops            0                       # Number of snoops hitting in the snoop filter with multiple (>1) holders of the requested data.
system.membus.pwrStateResidencyTicks::UNDEFINED  86962741000                       # Cumulative time (in ticks) in various power states
system.membus.trans_dist::ReadResp                450                       # Transaction distribution
system.membus.trans_dist::ReadExReq              6379                       # Transaction distribution
system.membus.trans_dist::ReadExResp             6379                       # Transaction distribution
system.membus.trans_dist::ReadSharedReq           450                       # Transaction distribution
system.membus.pkt_count_system.l3.mem_side::system.mem_ctrls.port        13658                       # Packet count per connected master and slave (bytes)
system.membus.pkt_count_system.l3.mem_side::total        13658                       # Packet count per connected master and slave (bytes)
system.membus.pkt_count::total                  13658                       # Packet count per connected master and slave (bytes)
system.membus.pkt_size_system.l3.mem_side::system.mem_ctrls.port       437056                       # Cumulative packet size per connected master and slave (bytes)
system.membus.pkt_size_system.l3.mem_side::total       437056                       # Cumulative packet size per connected master and slave (bytes)
system.membus.pkt_size::total                  437056                       # Cumulative packet size per connected master and slave (bytes)
system.membus.snoops                                0                       # Total snoops (count)
system.membus.snoopTraffic                          0                       # Total snoop traffic (bytes)
system.membus.snoop_fanout::samples              6829                       # Request fanout histogram
system.membus.snoop_fanout::mean                    0                       # Request fanout histogram
system.membus.snoop_fanout::stdev                   0                       # Request fanout histogram
system.membus.snoop_fanout::underflows              0      0.00%      0.00% # Request fanout histogram
system.membus.snoop_fanout::0                    6829    100.00%    100.00% # Request fanout histogram
system.membus.snoop_fanout::1                       0      0.00%    100.00% # Request fanout histogram
system.membus.snoop_fanout::overflows               0      0.00%    100.00% # Request fanout histogram
system.membus.snoop_fanout::min_value               0                       # Request fanout histogram
system.membus.snoop_fanout::max_value               0                       # Request fanout histogram
system.membus.snoop_fanout::total                6829                       # Request fanout histogram
system.membus.reqLayer2.occupancy             6832000                       # Layer occupancy (ticks)
system.membus.reqLayer2.utilization               0.0                       # Layer utilization (%)
system.membus.respLayer1.occupancy           34148000                       # Layer occupancy (ticks)
system.membus.respLayer1.utilization              0.0                       # Layer utilization (%)
system.tol2bus.snoop_filter.tot_requests        73174                       # Total number of requests made to the snoop filter.
system.tol2bus.snoop_filter.hit_single_requests        35920                       # Number of requests hitting in the snoop filter with a single holder of the requested data.
system.tol2bus.snoop_filter.hit_multi_requests            0                       # Number of requests hitting in the snoop filter with multiple (>1) holders of the requested data.
system.tol2bus.snoop_filter.tot_snoops              0                       # Total number of snoops made to the snoop filter.
system.tol2bus.snoop_filter.hit_single_snoops            0                       # Number of snoops hitting in the snoop filter with a single holder of the requested data.
system.tol2bus.snoop_filter.hit_multi_snoops            0                       # Number of snoops hitting in the snoop filter with multiple (>1) holders of the requested data.
system.tol2bus.pwrStateResidencyTicks::UNDEFINED  86962741000                       # Cumulative time (in ticks) in various power states
system.tol2bus.trans_dist::ReadResp             30659                       # Transaction distribution
system.tol2bus.trans_dist::WritebackDirty        35814                       # Transaction distribution
system.tol2bus.trans_dist::WritebackClean           43                       # Transaction distribution
system.tol2bus.trans_dist::CleanEvict              63                       # Transaction distribution
system.tol2bus.trans_dist::ReadExReq             6595                       # Transaction distribution
system.tol2bus.trans_dist::ReadExResp            6595                       # Transaction distribution
system.tol2bus.trans_dist::ReadCleanReq           353                       # Transaction distribution
system.tol2bus.trans_dist::ReadSharedReq        30306                       # Transaction distribution
system.tol2bus.pkt_count_system.cpu.icache.mem_side::system.l2.cpu_side          749                       # Packet count per connected master and slave (bytes)
system.tol2bus.pkt_count_system.cpu.dcache.mem_side::system.l2.cpu_side       109679                       # Packet count per connected master and slave (bytes)
system.tol2bus.pkt_count::total                110428                       # Packet count per connected master and slave (bytes)
system.tol2bus.pkt_size_system.cpu.icache.mem_side::system.l2.cpu_side        25344                       # Cumulative packet size per connected master and slave (bytes)
system.tol2bus.pkt_size_system.cpu.dcache.mem_side::system.l2.cpu_side      4653760                       # Cumulative packet size per connected master and slave (bytes)
system.tol2bus.pkt_size::total                4679104                       # Cumulative packet size per connected master and slave (bytes)
system.tol2bus.snoops                               0                       # Total snoops (count)
system.tol2bus.snoopTraffic                         0                       # Total snoop traffic (bytes)
system.tol2bus.snoop_fanout::samples            37254                       # Request fanout histogram
system.tol2bus.snoop_fanout::mean                   0                       # Request fanout histogram
system.tol2bus.snoop_fanout::stdev                  0                       # Request fanout histogram
system.tol2bus.snoop_fanout::underflows             0      0.00%      0.00% # Request fanout histogram
system.tol2bus.snoop_fanout::0                  37254    100.00%    100.00% # Request fanout histogram
system.tol2bus.snoop_fanout::1                      0      0.00%    100.00% # Request fanout histogram
system.tol2bus.snoop_fanout::2                      0      0.00%    100.00% # Request fanout histogram
system.tol2bus.snoop_fanout::3                      0      0.00%    100.00% # Request fanout histogram
system.tol2bus.snoop_fanout::4                      0      0.00%    100.00% # Request fanout histogram
system.tol2bus.snoop_fanout::overflows              0      0.00%    100.00% # Request fanout histogram
system.tol2bus.snoop_fanout::min_value              0                       # Request fanout histogram
system.tol2bus.snoop_fanout::max_value              0                       # Request fanout histogram
system.tol2bus.snoop_fanout::total              37254                       # Request fanout histogram
system.tol2bus.reqLayer0.occupancy           72444000                       # Layer occupancy (ticks)
system.tol2bus.reqLayer0.utilization              0.1                       # Layer utilization (%)
system.tol2bus.respLayer0.occupancy            529500                       # Layer occupancy (ticks)
system.tol2bus.respLayer0.utilization             0.0                       # Layer utilization (%)
system.tol2bus.respLayer1.occupancy          55351500                       # Layer occupancy (ticks)
system.tol2bus.respLayer1.utilization             0.1                       # Layer utilization (%)
system.tol3bus.snoop_filter.tot_requests         6829                       # Total number of requests made to the snoop filter.
system.tol3bus.snoop_filter.hit_single_requests            0                       # Number of requests hitting in the snoop filter with a single holder of the requested data.
system.tol3bus.snoop_filter.hit_multi_requests            0                       # Number of requests hitting in the snoop filter with multiple (>1) holders of the requested data.
system.tol3bus.snoop_filter.tot_snoops              0                       # Total number of snoops made to the snoop filter.
system.tol3bus.snoop_filter.hit_single_snoops            0                       # Number of snoops hitting in the snoop filter with a single holder of the requested data.
system.tol3bus.snoop_filter.hit_multi_snoops            0                       # Number of snoops hitting in the snoop filter with multiple (>1) holders of the requested data.
system.tol3bus.pwrStateResidencyTicks::UNDEFINED  86962741000                       # Cumulative time (in ticks) in various power states
system.tol3bus.trans_dist::ReadResp               450                       # Transaction distribution
system.tol3bus.trans_dist::ReadExReq             6379                       # Transaction distribution
system.tol3bus.trans_dist::ReadExResp            6379                       # Transaction distribution
system.tol3bus.trans_dist::ReadSharedReq          450                       # Transaction distribution
system.tol3bus.pkt_count_system.l2.mem_side::system.l3.cpu_side        13658                       # Packet count per connected master and slave (bytes)
system.tol3bus.pkt_size_system.l2.mem_side::system.l3.cpu_side       437056                       # Cumulative packet size per connected master and slave (bytes)
system.tol3bus.snoops                               0                       # Total snoops (count)
system.tol3bus.snoopTraffic                         0                       # Total snoop traffic (bytes)
system.tol3bus.snoop_fanout::samples             6829                       # Request fanout histogram
system.tol3bus.snoop_fanout::mean                   0                       # Request fanout histogram
system.tol3bus.snoop_fanout::stdev                  0                       # Request fanout histogram
system.tol3bus.snoop_fanout::underflows             0      0.00%      0.00% # Request fanout histogram
system.tol3bus.snoop_fanout::0                   6829    100.00%    100.00% # Request fanout histogram
system.tol3bus.snoop_fanout::1                      0      0.00%    100.00% # Request fanout histogram
system.tol3bus.snoop_fanout::overflows              0      0.00%    100.00% # Request fanout histogram
system.tol3bus.snoop_fanout::min_value              0                       # Request fanout histogram
system.tol3bus.snoop_fanout::max_value              0                       # Request fanout histogram
system.tol3bus.snoop_fanout::total               6829                       # Request fanout histogram
system.tol3bus.reqLayer0.occupancy            3414500                       # Layer occupancy (ticks)
system.tol3bus.reqLayer0.utilization              0.0                       # Layer utilization (%)
system.tol3bus.respLayer0.occupancy          10243500                       # Layer occupancy (ticks)
system.tol3bus.respLayer0.utilization             0.0                       # Layer utilization (%)

---------- End Simulation Statistics   ----------
