
---------- Begin Simulation Statistics ----------
sim_seconds                                  5.979771                       # Number of seconds simulated
sim_ticks                                5979770636000                       # Number of ticks simulated
final_tick                               5979770636000                       # Number of ticks from beginning of simulation (restored from checkpoints and never reset)
sim_freq                                 1000000000000                       # Frequency of simulated ticks
host_inst_rate                                 375787                       # Simulator instruction rate (inst/s)
host_op_rate                                   601989                       # Simulator op (including micro ops) rate (op/s)
host_tick_rate                             2412368555                       # Simulator tick rate (ticks/s)
host_mem_usage                                 663992                       # Number of bytes of host memory used
host_seconds                                  2478.80                       # Real time elapsed on the host
sim_insts                                   931499899                       # Number of instructions simulated
sim_ops                                    1492207764                       # Number of ops (including micro ops) simulated
system.voltage_domain.voltage                       1                       # Voltage in Volts
system.clk_domain.clock                          1000                       # Clock period in ticks
system.mem_ctrls.pwrStateResidencyTicks::UNDEFINED 5979770636000                       # Cumulative time (in ticks) in various power states
system.mem_ctrls.bytes_read::cpu.inst           22656                       # Number of bytes read from this memory
system.mem_ctrls.bytes_read::cpu.data         1094400                       # Number of bytes read from this memory
system.mem_ctrls.bytes_read::total            1117056                       # Number of bytes read from this memory
system.mem_ctrls.bytes_inst_read::cpu.inst        22656                       # Number of instructions bytes read from this memory
system.mem_ctrls.bytes_inst_read::total         22656                       # Number of instructions bytes read from this memory
system.mem_ctrls.bytes_written::writebacks    890000320                       # Number of bytes written to this memory
system.mem_ctrls.bytes_written::total       890000320                       # Number of bytes written to this memory
system.mem_ctrls.num_reads::cpu.inst              354                       # Number of read requests responded to by this memory
system.mem_ctrls.num_reads::cpu.data            17100                       # Number of read requests responded to by this memory
system.mem_ctrls.num_reads::total               17454                       # Number of read requests responded to by this memory
system.mem_ctrls.num_writes::writebacks      13906255                       # Number of write requests responded to by this memory
system.mem_ctrls.num_writes::total           13906255                       # Number of write requests responded to by this memory
system.mem_ctrls.bw_read::cpu.inst               3789                       # Total read bandwidth from this memory (bytes/s)
system.mem_ctrls.bw_read::cpu.data             183017                       # Total read bandwidth from this memory (bytes/s)
system.mem_ctrls.bw_read::total                186806                       # Total read bandwidth from this memory (bytes/s)
system.mem_ctrls.bw_inst_read::cpu.inst          3789                       # Instruction read bandwidth from this memory (bytes/s)
system.mem_ctrls.bw_inst_read::total             3789                       # Instruction read bandwidth from this memory (bytes/s)
system.mem_ctrls.bw_write::writebacks       148835194                       # Write bandwidth from this memory (bytes/s)
system.mem_ctrls.bw_write::total            148835194                       # Write bandwidth from this memory (bytes/s)
system.mem_ctrls.bw_total::writebacks       148835194                       # Total bandwidth to/from this memory (bytes/s)
system.mem_ctrls.bw_total::cpu.inst              3789                       # Total bandwidth to/from this memory (bytes/s)
system.mem_ctrls.bw_total::cpu.data            183017                       # Total bandwidth to/from this memory (bytes/s)
system.mem_ctrls.bw_total::total            149021999                       # Total bandwidth to/from this memory (bytes/s)
system.pwrStateResidencyTicks::UNDEFINED 5979770636000                       # Cumulative time (in ticks) in various power states
system.cpu_voltage_domain.voltage                   1                       # Voltage in Volts
system.cpu_clk_domain.clock                       500                       # Clock period in ticks
system.cpu.dtb.walker.pwrStateResidencyTicks::UNDEFINED 5979770636000                       # Cumulative time (in ticks) in various power states
system.cpu.dtb.rdAccesses                   382684104                       # TLB accesses on read requests
system.cpu.dtb.wrAccesses                    56342478                       # TLB accesses on write requests
system.cpu.dtb.rdMisses                       7936442                       # TLB misses on read requests
system.cpu.dtb.wrMisses                           272                       # TLB misses on write requests
system.cpu.apic_clk_domain.clock                 8000                       # Clock period in ticks
system.cpu.interrupts.pwrStateResidencyTicks::UNDEFINED 5979770636000                       # Cumulative time (in ticks) in various power states
system.cpu.itb.walker.pwrStateResidencyTicks::UNDEFINED 5979770636000                       # Cumulative time (in ticks) in various power states
system.cpu.itb.rdAccesses                           0                       # TLB accesses on read requests
system.cpu.itb.wrAccesses                  1422005625                       # TLB accesses on write requests
system.cpu.itb.rdMisses                             0                       # TLB misses on read requests
system.cpu.itb.wrMisses                            36                       # TLB misses on write requests
system.cpu.workload.numSyscalls                     9                       # Number of system calls
system.cpu.pwrStateResidencyTicks::ON    5979770636000                       # Cumulative time (in ticks) in various power states
system.cpu.numCycles                      11959541272                       # number of cpu cycles simulated
system.cpu.numWorkItemsStarted                      0                       # number of work items this cpu started
system.cpu.numWorkItemsCompleted                    0                       # number of work items this cpu completed
system.cpu.committedInsts                   931499899                       # Number of instructions committed
system.cpu.committedOps                    1492207764                       # Number of ops (including micro ops) committed
system.cpu.num_int_alu_accesses            1491701050                       # Number of integer alu accesses
system.cpu.num_fp_alu_accesses                   1943                       # Number of float alu accesses
system.cpu.num_vec_alu_accesses                     0                       # Number of vector alu accesses
system.cpu.num_func_calls                     1080242                       # number of times a function call or return occured
system.cpu.num_conditional_control_insts     29571457                       # number of instructions that are conditional controls
system.cpu.num_int_insts                   1491701050                       # number of integer instructions
system.cpu.num_fp_insts                          1943                       # number of float instructions
system.cpu.num_vec_insts                            0                       # number of vector instructions
system.cpu.num_int_register_reads          2934935010                       # number of times the integer registers were read
system.cpu.num_int_register_writes         1545512941                       # number of times the integer registers were written
system.cpu.num_fp_register_reads                 3767                       # number of times the floating registers were read
system.cpu.num_fp_register_writes                1480                       # number of times the floating registers were written
system.cpu.num_vec_register_reads                   0                       # number of times the vector registers were read
system.cpu.num_vec_register_writes                  0                       # number of times the vector registers were written
system.cpu.num_cc_register_reads            159199316                       # number of times the CC registers were read
system.cpu.num_cc_register_writes           523310534                       # number of times the CC registers were written
system.cpu.num_mem_refs                     439026579                       # number of memory refs
system.cpu.num_load_insts                   382684101                       # Number of load instructions
system.cpu.num_store_insts                   56342478                       # Number of store instructions
system.cpu.num_idle_cycles                          0                       # Number of idle cycles
system.cpu.num_busy_cycles                11959541272                       # Number of busy cycles
system.cpu.not_idle_fraction                        1                       # Percentage of non-idle cycles
system.cpu.idle_fraction                            0                       # Percentage of idle cycles
system.cpu.Branches                          30742409                       # Number of branches fetched
system.cpu.op_class::No_OpClass                505293      0.03%      0.03% # Class of executed instruction
system.cpu.op_class::IntAlu                 914844146     61.31%     61.34% # Class of executed instruction
system.cpu.op_class::IntMult                135270004      9.07%     70.41% # Class of executed instruction
system.cpu.op_class::IntDiv                   2560782      0.17%     70.58% # Class of executed instruction
system.cpu.op_class::FloatAdd                      10      0.00%     70.58% # Class of executed instruction
system.cpu.op_class::FloatCmp                       0      0.00%     70.58% # Class of executed instruction
system.cpu.op_class::FloatCvt                       0      0.00%     70.58% # Class of executed instruction
system.cpu.op_class::FloatMult                      0      0.00%     70.58% # Class of executed instruction
system.cpu.op_class::FloatMultAcc                   0      0.00%     70.58% # Class of executed instruction
system.cpu.op_class::FloatDiv                       0      0.00%     70.58% # Class of executed instruction
system.cpu.op_class::FloatMisc                      0      0.00%     70.58% # Class of executed instruction
system.cpu.op_class::FloatSqrt                      0      0.00%     70.58% # Class of executed instruction
system.cpu.op_class::SimdAdd                      374      0.00%     70.58% # Class of executed instruction
system.cpu.op_class::SimdAddAcc                     0      0.00%     70.58% # Class of executed instruction
system.cpu.op_class::SimdAlu                       68      0.00%     70.58% # Class of executed instruction
system.cpu.op_class::SimdCmp                        0      0.00%     70.58% # Class of executed instruction
system.cpu.op_class::SimdCvt                      108      0.00%     70.58% # Class of executed instruction
system.cpu.op_class::SimdMisc                     214      0.00%     70.58% # Class of executed instruction
system.cpu.op_class::SimdMult                       0      0.00%     70.58% # Class of executed instruction
system.cpu.op_class::SimdMultAcc                    0      0.00%     70.58% # Class of executed instruction
system.cpu.op_class::SimdShift                    186      0.00%     70.58% # Class of executed instruction
system.cpu.op_class::SimdShiftAcc                   0      0.00%     70.58% # Class of executed instruction
system.cpu.op_class::SimdSqrt                       0      0.00%     70.58% # Class of executed instruction
system.cpu.op_class::SimdFloatAdd                   0      0.00%     70.58% # Class of executed instruction
system.cpu.op_class::SimdFloatAlu                   0      0.00%     70.58% # Class of executed instruction
system.cpu.op_class::SimdFloatCmp                   0      0.00%     70.58% # Class of executed instruction
system.cpu.op_class::SimdFloatCvt                   0      0.00%     70.58% # Class of executed instruction
system.cpu.op_class::SimdFloatDiv                   0      0.00%     70.58% # Class of executed instruction
system.cpu.op_class::SimdFloatMisc                  0      0.00%     70.58% # Class of executed instruction
system.cpu.op_class::SimdFloatMult                  0      0.00%     70.58% # Class of executed instruction
system.cpu.op_class::SimdFloatMultAcc               0      0.00%     70.58% # Class of executed instruction
system.cpu.op_class::SimdFloatSqrt                  0      0.00%     70.58% # Class of executed instruction
system.cpu.op_class::MemRead                382684045     25.65%     96.22% # Class of executed instruction
system.cpu.op_class::MemWrite                56342063      3.78%    100.00% # Class of executed instruction
system.cpu.op_class::FloatMemRead                  56      0.00%    100.00% # Class of executed instruction
system.cpu.op_class::FloatMemWrite                415      0.00%    100.00% # Class of executed instruction
system.cpu.op_class::IprAccess                      0      0.00%    100.00% # Class of executed instruction
system.cpu.op_class::InstPrefetch                   0      0.00%    100.00% # Class of executed instruction
system.cpu.op_class::total                 1492207764                       # Class of executed instruction
system.cpu.dcache.tags.pwrStateResidencyTicks::UNDEFINED 5979770636000                       # Cumulative time (in ticks) in various power states
system.cpu.dcache.tags.tagsinuse           511.848781                       # Cycle average of tags in use
system.cpu.dcache.tags.total_refs           439026582                       # Total number of references to valid blocks.
system.cpu.dcache.tags.sampled_refs           3126819                       # Sample count of references to valid blocks.
system.cpu.dcache.tags.avg_refs            140.406778                       # Average number of references to valid blocks.
system.cpu.dcache.tags.warmup_cycle            759000                       # Cycle when the warmup percentage was hit.
system.cpu.dcache.tags.occ_blocks::cpu.data   511.848781                       # Average occupied blocks per requestor
system.cpu.dcache.tags.occ_percent::cpu.data     0.999705                       # Average percentage of cache occupancy
system.cpu.dcache.tags.occ_percent::total     0.999705                       # Average percentage of cache occupancy
system.cpu.dcache.tags.occ_task_id_blocks::1024          512                       # Occupied blocks per task id
system.cpu.dcache.tags.age_task_id_blocks_1024::0           11                       # Occupied blocks per task id
system.cpu.dcache.tags.age_task_id_blocks_1024::1           24                       # Occupied blocks per task id
system.cpu.dcache.tags.age_task_id_blocks_1024::2          295                       # Occupied blocks per task id
system.cpu.dcache.tags.age_task_id_blocks_1024::3          181                       # Occupied blocks per task id
system.cpu.dcache.tags.age_task_id_blocks_1024::4            1                       # Occupied blocks per task id
system.cpu.dcache.tags.occ_task_id_percent::1024            1                       # Percentage of cache occupancy per task id
system.cpu.dcache.tags.tag_accesses         881179983                       # Number of tag accesses
system.cpu.dcache.tags.data_accesses        881179983                       # Number of data accesses
system.cpu.dcache.pwrStateResidencyTicks::UNDEFINED 5979770636000                       # Cumulative time (in ticks) in various power states
system.cpu.dcache.ReadReq_hits::cpu.data    379577552                       # number of ReadReq hits
system.cpu.dcache.ReadReq_hits::total       379577552                       # number of ReadReq hits
system.cpu.dcache.WriteReq_hits::cpu.data       714929                       # number of WriteReq hits
system.cpu.dcache.WriteReq_hits::total         714929                       # number of WriteReq hits
system.cpu.dcache.demand_hits::cpu.data     380292481                       # number of demand (read+write) hits
system.cpu.dcache.demand_hits::total        380292481                       # number of demand (read+write) hits
system.cpu.dcache.overall_hits::cpu.data    380292481                       # number of overall hits
system.cpu.dcache.overall_hits::total       380292481                       # number of overall hits
system.cpu.dcache.ReadReq_misses::cpu.data      3106552                       # number of ReadReq misses
system.cpu.dcache.ReadReq_misses::total       3106552                       # number of ReadReq misses
system.cpu.dcache.WriteReq_misses::cpu.data     55627549                       # number of WriteReq misses
system.cpu.dcache.WriteReq_misses::total     55627549                       # number of WriteReq misses
system.cpu.dcache.demand_misses::cpu.data     58734101                       # number of demand (read+write) misses
system.cpu.dcache.demand_misses::total       58734101                       # number of demand (read+write) misses
system.cpu.dcache.overall_misses::cpu.data     58734101                       # number of overall misses
system.cpu.dcache.overall_misses::total      58734101                       # number of overall misses
system.cpu.dcache.ReadReq_miss_latency::cpu.data  75981882000                       # number of ReadReq miss cycles
system.cpu.dcache.ReadReq_miss_latency::total  75981882000                       # number of ReadReq miss cycles
system.cpu.dcache.WriteReq_miss_latency::cpu.data 4101400015000                       # number of WriteReq miss cycles
system.cpu.dcache.WriteReq_miss_latency::total 4101400015000                       # number of WriteReq miss cycles
system.cpu.dcache.demand_miss_latency::cpu.data 4177381897000                       # number of demand (read+write) miss cycles
system.cpu.dcache.demand_miss_latency::total 4177381897000                       # number of demand (read+write) miss cycles
system.cpu.dcache.overall_miss_latency::cpu.data 4177381897000                       # number of overall miss cycles
system.cpu.dcache.overall_miss_latency::total 4177381897000                       # number of overall miss cycles
system.cpu.dcache.ReadReq_accesses::cpu.data    382684104                       # number of ReadReq accesses(hits+misses)
system.cpu.dcache.ReadReq_accesses::total    382684104                       # number of ReadReq accesses(hits+misses)
system.cpu.dcache.WriteReq_accesses::cpu.data     56342478                       # number of WriteReq accesses(hits+misses)
system.cpu.dcache.WriteReq_accesses::total     56342478                       # number of WriteReq accesses(hits+misses)
system.cpu.dcache.demand_accesses::cpu.data    439026582                       # number of demand (read+write) accesses
system.cpu.dcache.demand_accesses::total    439026582                       # number of demand (read+write) accesses
system.cpu.dcache.overall_accesses::cpu.data    439026582                       # number of overall (read+write) accesses
system.cpu.dcache.overall_accesses::total    439026582                       # number of overall (read+write) accesses
system.cpu.dcache.ReadReq_miss_rate::cpu.data     0.008118                       # miss rate for ReadReq accesses
system.cpu.dcache.ReadReq_miss_rate::total     0.008118                       # miss rate for ReadReq accesses
system.cpu.dcache.WriteReq_miss_rate::cpu.data     0.987311                       # miss rate for WriteReq accesses
system.cpu.dcache.WriteReq_miss_rate::total     0.987311                       # miss rate for WriteReq accesses
system.cpu.dcache.demand_miss_rate::cpu.data     0.133783                       # miss rate for demand accesses
system.cpu.dcache.demand_miss_rate::total     0.133783                       # miss rate for demand accesses
system.cpu.dcache.overall_miss_rate::cpu.data     0.133783                       # miss rate for overall accesses
system.cpu.dcache.overall_miss_rate::total     0.133783                       # miss rate for overall accesses
system.cpu.dcache.ReadReq_avg_miss_latency::cpu.data 24458.590102                       # average ReadReq miss latency
system.cpu.dcache.ReadReq_avg_miss_latency::total 24458.590102                       # average ReadReq miss latency
system.cpu.dcache.WriteReq_avg_miss_latency::cpu.data 73729.655337                       # average WriteReq miss latency
system.cpu.dcache.WriteReq_avg_miss_latency::total 73729.655337                       # average WriteReq miss latency
system.cpu.dcache.demand_avg_miss_latency::cpu.data 71123.620280                       # average overall miss latency
system.cpu.dcache.demand_avg_miss_latency::total 71123.620280                       # average overall miss latency
system.cpu.dcache.overall_avg_miss_latency::cpu.data 71123.620280                       # average overall miss latency
system.cpu.dcache.overall_avg_miss_latency::total 71123.620280                       # average overall miss latency
system.cpu.dcache.blocked_cycles::no_mshrs            0                       # number of cycles access was blocked
system.cpu.dcache.blocked_cycles::no_targets            0                       # number of cycles access was blocked
system.cpu.dcache.blocked::no_mshrs                 0                       # number of cycles access was blocked
system.cpu.dcache.blocked::no_targets               0                       # number of cycles access was blocked
system.cpu.dcache.avg_blocked_cycles::no_mshrs          nan                       # average number of cycles each access was blocked
system.cpu.dcache.avg_blocked_cycles::no_targets          nan                       # average number of cycles each access was blocked
system.cpu.dcache.writebacks::writebacks         5655                       # number of writebacks
system.cpu.dcache.writebacks::total              5655                       # number of writebacks
system.cpu.dcache.ReadReq_mshr_misses::cpu.data      3106552                       # number of ReadReq MSHR misses
system.cpu.dcache.ReadReq_mshr_misses::total      3106552                       # number of ReadReq MSHR misses
system.cpu.dcache.WriteReq_mshr_misses::cpu.data     55627549                       # number of WriteReq MSHR misses
system.cpu.dcache.WriteReq_mshr_misses::total     55627549                       # number of WriteReq MSHR misses
system.cpu.dcache.demand_mshr_misses::cpu.data     58734101                       # number of demand (read+write) MSHR misses
system.cpu.dcache.demand_mshr_misses::total     58734101                       # number of demand (read+write) MSHR misses
system.cpu.dcache.overall_mshr_misses::cpu.data     58734101                       # number of overall MSHR misses
system.cpu.dcache.overall_mshr_misses::total     58734101                       # number of overall MSHR misses
system.cpu.dcache.ReadReq_mshr_miss_latency::cpu.data  72875330000                       # number of ReadReq MSHR miss cycles
system.cpu.dcache.ReadReq_mshr_miss_latency::total  72875330000                       # number of ReadReq MSHR miss cycles
system.cpu.dcache.WriteReq_mshr_miss_latency::cpu.data 4045772466000                       # number of WriteReq MSHR miss cycles
system.cpu.dcache.WriteReq_mshr_miss_latency::total 4045772466000                       # number of WriteReq MSHR miss cycles
system.cpu.dcache.demand_mshr_miss_latency::cpu.data 4118647796000                       # number of demand (read+write) MSHR miss cycles
system.cpu.dcache.demand_mshr_miss_latency::total 4118647796000                       # number of demand (read+write) MSHR miss cycles
system.cpu.dcache.overall_mshr_miss_latency::cpu.data 4118647796000                       # number of overall MSHR miss cycles
system.cpu.dcache.overall_mshr_miss_latency::total 4118647796000                       # number of overall MSHR miss cycles
system.cpu.dcache.ReadReq_mshr_miss_rate::cpu.data     0.008118                       # mshr miss rate for ReadReq accesses
system.cpu.dcache.ReadReq_mshr_miss_rate::total     0.008118                       # mshr miss rate for ReadReq accesses
system.cpu.dcache.WriteReq_mshr_miss_rate::cpu.data     0.987311                       # mshr miss rate for WriteReq accesses
system.cpu.dcache.WriteReq_mshr_miss_rate::total     0.987311                       # mshr miss rate for WriteReq accesses
system.cpu.dcache.demand_mshr_miss_rate::cpu.data     0.133783                       # mshr miss rate for demand accesses
system.cpu.dcache.demand_mshr_miss_rate::total     0.133783                       # mshr miss rate for demand accesses
system.cpu.dcache.overall_mshr_miss_rate::cpu.data     0.133783                       # mshr miss rate for overall accesses
system.cpu.dcache.overall_mshr_miss_rate::total     0.133783                       # mshr miss rate for overall accesses
system.cpu.dcache.ReadReq_avg_mshr_miss_latency::cpu.data 23458.590102                       # average ReadReq mshr miss latency
system.cpu.dcache.ReadReq_avg_mshr_miss_latency::total 23458.590102                       # average ReadReq mshr miss latency
system.cpu.dcache.WriteReq_avg_mshr_miss_latency::cpu.data 72729.655337                       # average WriteReq mshr miss latency
system.cpu.dcache.WriteReq_avg_mshr_miss_latency::total 72729.655337                       # average WriteReq mshr miss latency
system.cpu.dcache.demand_avg_mshr_miss_latency::cpu.data 70123.620280                       # average overall mshr miss latency
system.cpu.dcache.demand_avg_mshr_miss_latency::total 70123.620280                       # average overall mshr miss latency
system.cpu.dcache.overall_avg_mshr_miss_latency::cpu.data 70123.620280                       # average overall mshr miss latency
system.cpu.dcache.overall_avg_mshr_miss_latency::total 70123.620280                       # average overall mshr miss latency
system.cpu.dcache.replacements                3126307                       # number of replacements
system.cpu.dtb_walker_cache.tags.pwrStateResidencyTicks::UNDEFINED 5979770636000                       # Cumulative time (in ticks) in various power states
system.cpu.dtb_walker_cache.tags.tagsinuse            0                       # Cycle average of tags in use
system.cpu.dtb_walker_cache.tags.total_refs            0                       # Total number of references to valid blocks.
system.cpu.dtb_walker_cache.tags.sampled_refs            0                       # Sample count of references to valid blocks.
system.cpu.dtb_walker_cache.tags.avg_refs          nan                       # Average number of references to valid blocks.
system.cpu.dtb_walker_cache.tags.warmup_cycle            0                       # Cycle when the warmup percentage was hit.
system.cpu.dtb_walker_cache.tags.tag_accesses            0                       # Number of tag accesses
system.cpu.dtb_walker_cache.tags.data_accesses            0                       # Number of data accesses
system.cpu.dtb_walker_cache.pwrStateResidencyTicks::UNDEFINED 5979770636000                       # Cumulative time (in ticks) in various power states
system.cpu.dtb_walker_cache.blocked_cycles::no_mshrs            0                       # number of cycles access was blocked
system.cpu.dtb_walker_cache.blocked_cycles::no_targets            0                       # number of cycles access was blocked
system.cpu.dtb_walker_cache.blocked::no_mshrs            0                       # number of cycles access was blocked
system.cpu.dtb_walker_cache.blocked::no_targets            0                       # number of cycles access was blocked
system.cpu.dtb_walker_cache.avg_blocked_cycles::no_mshrs          nan                       # average number of cycles each access was blocked
system.cpu.dtb_walker_cache.avg_blocked_cycles::no_targets          nan                       # average number of cycles each access was blocked
system.cpu.dtb_walker_cache.replacements            0                       # number of replacements
system.cpu.icache.tags.pwrStateResidencyTicks::UNDEFINED 5979770636000                       # Cumulative time (in ticks) in various power states
system.cpu.icache.tags.tagsinuse           281.898168                       # Cycle average of tags in use
system.cpu.icache.tags.total_refs          1422005625                       # Total number of references to valid blocks.
system.cpu.icache.tags.sampled_refs               354                       # Sample count of references to valid blocks.
system.cpu.icache.tags.avg_refs          4016965.042373                       # Average number of references to valid blocks.
system.cpu.icache.tags.warmup_cycle            439000                       # Cycle when the warmup percentage was hit.
system.cpu.icache.tags.occ_blocks::cpu.inst   281.898168                       # Average occupied blocks per requestor
system.cpu.icache.tags.occ_percent::cpu.inst     0.550582                       # Average percentage of cache occupancy
system.cpu.icache.tags.occ_percent::total     0.550582                       # Average percentage of cache occupancy
system.cpu.icache.tags.occ_task_id_blocks::1024          310                       # Occupied blocks per task id
system.cpu.icache.tags.age_task_id_blocks_1024::0           16                       # Occupied blocks per task id
system.cpu.icache.tags.age_task_id_blocks_1024::1           22                       # Occupied blocks per task id
system.cpu.icache.tags.age_task_id_blocks_1024::4          272                       # Occupied blocks per task id
system.cpu.icache.tags.occ_task_id_percent::1024     0.605469                       # Percentage of cache occupancy per task id
system.cpu.icache.tags.tag_accesses        2844011604                       # Number of tag accesses
system.cpu.icache.tags.data_accesses       2844011604                       # Number of data accesses
system.cpu.icache.pwrStateResidencyTicks::UNDEFINED 5979770636000                       # Cumulative time (in ticks) in various power states
system.cpu.icache.ReadReq_hits::cpu.inst   1422005271                       # number of ReadReq hits
system.cpu.icache.ReadReq_hits::total      1422005271                       # number of ReadReq hits
system.cpu.icache.demand_hits::cpu.inst    1422005271                       # number of demand (read+write) hits
system.cpu.icache.demand_hits::total       1422005271                       # number of demand (read+write) hits
system.cpu.icache.overall_hits::cpu.inst   1422005271                       # number of overall hits
system.cpu.icache.overall_hits::total      1422005271                       # number of overall hits
system.cpu.icache.ReadReq_misses::cpu.inst          354                       # number of ReadReq misses
system.cpu.icache.ReadReq_misses::total           354                       # number of ReadReq misses
system.cpu.icache.demand_misses::cpu.inst          354                       # number of demand (read+write) misses
system.cpu.icache.demand_misses::total            354                       # number of demand (read+write) misses
system.cpu.icache.overall_misses::cpu.inst          354                       # number of overall misses
system.cpu.icache.overall_misses::total           354                       # number of overall misses
system.cpu.icache.ReadReq_miss_latency::cpu.inst     90990000                       # number of ReadReq miss cycles
system.cpu.icache.ReadReq_miss_latency::total     90990000                       # number of ReadReq miss cycles
system.cpu.icache.demand_miss_latency::cpu.inst     90990000                       # number of demand (read+write) miss cycles
system.cpu.icache.demand_miss_latency::total     90990000                       # number of demand (read+write) miss cycles
system.cpu.icache.overall_miss_latency::cpu.inst     90990000                       # number of overall miss cycles
system.cpu.icache.overall_miss_latency::total     90990000                       # number of overall miss cycles
system.cpu.icache.ReadReq_accesses::cpu.inst   1422005625                       # number of ReadReq accesses(hits+misses)
system.cpu.icache.ReadReq_accesses::total   1422005625                       # number of ReadReq accesses(hits+misses)
system.cpu.icache.demand_accesses::cpu.inst   1422005625                       # number of demand (read+write) accesses
system.cpu.icache.demand_accesses::total   1422005625                       # number of demand (read+write) accesses
system.cpu.icache.overall_accesses::cpu.inst   1422005625                       # number of overall (read+write) accesses
system.cpu.icache.overall_accesses::total   1422005625                       # number of overall (read+write) accesses
system.cpu.icache.ReadReq_miss_rate::cpu.inst     0.000000                       # miss rate for ReadReq accesses
system.cpu.icache.ReadReq_miss_rate::total     0.000000                       # miss rate for ReadReq accesses
system.cpu.icache.demand_miss_rate::cpu.inst     0.000000                       # miss rate for demand accesses
system.cpu.icache.demand_miss_rate::total     0.000000                       # miss rate for demand accesses
system.cpu.icache.overall_miss_rate::cpu.inst     0.000000                       # miss rate for overall accesses
system.cpu.icache.overall_miss_rate::total     0.000000                       # miss rate for overall accesses
system.cpu.icache.ReadReq_avg_miss_latency::cpu.inst 257033.898305                       # average ReadReq miss latency
system.cpu.icache.ReadReq_avg_miss_latency::total 257033.898305                       # average ReadReq miss latency
system.cpu.icache.demand_avg_miss_latency::cpu.inst 257033.898305                       # average overall miss latency
system.cpu.icache.demand_avg_miss_latency::total 257033.898305                       # average overall miss latency
system.cpu.icache.overall_avg_miss_latency::cpu.inst 257033.898305                       # average overall miss latency
system.cpu.icache.overall_avg_miss_latency::total 257033.898305                       # average overall miss latency
system.cpu.icache.blocked_cycles::no_mshrs            0                       # number of cycles access was blocked
system.cpu.icache.blocked_cycles::no_targets            0                       # number of cycles access was blocked
system.cpu.icache.blocked::no_mshrs                 0                       # number of cycles access was blocked
system.cpu.icache.blocked::no_targets               0                       # number of cycles access was blocked
system.cpu.icache.avg_blocked_cycles::no_mshrs          nan                       # average number of cycles each access was blocked
system.cpu.icache.avg_blocked_cycles::no_targets          nan                       # average number of cycles each access was blocked
system.cpu.icache.writebacks::writebacks           44                       # number of writebacks
system.cpu.icache.writebacks::total                44                       # number of writebacks
system.cpu.icache.ReadReq_mshr_misses::cpu.inst          354                       # number of ReadReq MSHR misses
system.cpu.icache.ReadReq_mshr_misses::total          354                       # number of ReadReq MSHR misses
system.cpu.icache.demand_mshr_misses::cpu.inst          354                       # number of demand (read+write) MSHR misses
system.cpu.icache.demand_mshr_misses::total          354                       # number of demand (read+write) MSHR misses
system.cpu.icache.overall_mshr_misses::cpu.inst          354                       # number of overall MSHR misses
system.cpu.icache.overall_mshr_misses::total          354                       # number of overall MSHR misses
system.cpu.icache.ReadReq_mshr_miss_latency::cpu.inst     90636000                       # number of ReadReq MSHR miss cycles
system.cpu.icache.ReadReq_mshr_miss_latency::total     90636000                       # number of ReadReq MSHR miss cycles
system.cpu.icache.demand_mshr_miss_latency::cpu.inst     90636000                       # number of demand (read+write) MSHR miss cycles
system.cpu.icache.demand_mshr_miss_latency::total     90636000                       # number of demand (read+write) MSHR miss cycles
system.cpu.icache.overall_mshr_miss_latency::cpu.inst     90636000                       # number of overall MSHR miss cycles
system.cpu.icache.overall_mshr_miss_latency::total     90636000                       # number of overall MSHR miss cycles
system.cpu.icache.ReadReq_mshr_miss_rate::cpu.inst     0.000000                       # mshr miss rate for ReadReq accesses
system.cpu.icache.ReadReq_mshr_miss_rate::total     0.000000                       # mshr miss rate for ReadReq accesses
system.cpu.icache.demand_mshr_miss_rate::cpu.inst     0.000000                       # mshr miss rate for demand accesses
system.cpu.icache.demand_mshr_miss_rate::total     0.000000                       # mshr miss rate for demand accesses
system.cpu.icache.overall_mshr_miss_rate::cpu.inst     0.000000                       # mshr miss rate for overall accesses
system.cpu.icache.overall_mshr_miss_rate::total     0.000000                       # mshr miss rate for overall accesses
system.cpu.icache.ReadReq_avg_mshr_miss_latency::cpu.inst 256033.898305                       # average ReadReq mshr miss latency
system.cpu.icache.ReadReq_avg_mshr_miss_latency::total 256033.898305                       # average ReadReq mshr miss latency
system.cpu.icache.demand_avg_mshr_miss_latency::cpu.inst 256033.898305                       # average overall mshr miss latency
system.cpu.icache.demand_avg_mshr_miss_latency::total 256033.898305                       # average overall mshr miss latency
system.cpu.icache.overall_avg_mshr_miss_latency::cpu.inst 256033.898305                       # average overall mshr miss latency
system.cpu.icache.overall_avg_mshr_miss_latency::total 256033.898305                       # average overall mshr miss latency
system.cpu.icache.replacements                     44                       # number of replacements
system.cpu.itb_walker_cache.tags.pwrStateResidencyTicks::UNDEFINED 5979770636000                       # Cumulative time (in ticks) in various power states
system.cpu.itb_walker_cache.tags.tagsinuse            0                       # Cycle average of tags in use
system.cpu.itb_walker_cache.tags.total_refs            0                       # Total number of references to valid blocks.
system.cpu.itb_walker_cache.tags.sampled_refs            0                       # Sample count of references to valid blocks.
system.cpu.itb_walker_cache.tags.avg_refs          nan                       # Average number of references to valid blocks.
system.cpu.itb_walker_cache.tags.warmup_cycle            0                       # Cycle when the warmup percentage was hit.
system.cpu.itb_walker_cache.tags.tag_accesses            0                       # Number of tag accesses
system.cpu.itb_walker_cache.tags.data_accesses            0                       # Number of data accesses
system.cpu.itb_walker_cache.pwrStateResidencyTicks::UNDEFINED 5979770636000                       # Cumulative time (in ticks) in various power states
system.cpu.itb_walker_cache.blocked_cycles::no_mshrs            0                       # number of cycles access was blocked
system.cpu.itb_walker_cache.blocked_cycles::no_targets            0                       # number of cycles access was blocked
system.cpu.itb_walker_cache.blocked::no_mshrs            0                       # number of cycles access was blocked
system.cpu.itb_walker_cache.blocked::no_targets            0                       # number of cycles access was blocked
system.cpu.itb_walker_cache.avg_blocked_cycles::no_mshrs          nan                       # average number of cycles each access was blocked
system.cpu.itb_walker_cache.avg_blocked_cycles::no_targets          nan                       # average number of cycles each access was blocked
system.cpu.itb_walker_cache.replacements            0                       # number of replacements
system.l2.tags.pwrStateResidencyTicks::UNDEFINED 5979770636000                       # Cumulative time (in ticks) in various power states
system.l2.tags.tagsinuse                  2045.827461                       # Cycle average of tags in use
system.l2.tags.total_refs                   117482789                       # Total number of references to valid blocks.
system.l2.tags.sampled_refs                   1710854                       # Sample count of references to valid blocks.
system.l2.tags.avg_refs                     68.669091                       # Average number of references to valid blocks.
system.l2.tags.warmup_cycle                    428500                       # Cycle when the warmup percentage was hit.
system.l2.tags.occ_blocks::writebacks        0.000012                       # Average occupied blocks per requestor
system.l2.tags.occ_blocks::cpu.inst          0.836341                       # Average occupied blocks per requestor
system.l2.tags.occ_blocks::cpu.data       2044.991108                       # Average occupied blocks per requestor
system.l2.tags.occ_percent::writebacks       0.000000                       # Average percentage of cache occupancy
system.l2.tags.occ_percent::cpu.inst         0.000408                       # Average percentage of cache occupancy
system.l2.tags.occ_percent::cpu.data         0.998531                       # Average percentage of cache occupancy
system.l2.tags.occ_percent::total            0.998939                       # Average percentage of cache occupancy
system.l2.tags.occ_task_id_blocks::1024          2048                       # Occupied blocks per task id
system.l2.tags.age_task_id_blocks_1024::0           33                       # Occupied blocks per task id
system.l2.tags.age_task_id_blocks_1024::1           39                       # Occupied blocks per task id
system.l2.tags.age_task_id_blocks_1024::2          301                       # Occupied blocks per task id
system.l2.tags.age_task_id_blocks_1024::3         1654                       # Occupied blocks per task id
system.l2.tags.age_task_id_blocks_1024::4           21                       # Occupied blocks per task id
system.l2.tags.occ_task_id_percent::1024            1                       # Percentage of cache occupancy per task id
system.l2.tags.tag_accesses                 941573182                       # Number of tag accesses
system.l2.tags.data_accesses                941573182                       # Number of data accesses
system.l2.pwrStateResidencyTicks::UNDEFINED 5979770636000                       # Cumulative time (in ticks) in various power states
system.l2.WritebackDirty_hits::writebacks         5655                       # number of WritebackDirty hits
system.l2.WritebackDirty_hits::total             5655                       # number of WritebackDirty hits
system.l2.WritebackClean_hits::writebacks           44                       # number of WritebackClean hits
system.l2.WritebackClean_hits::total               44                       # number of WritebackClean hits
system.l2.WriteClean_hits::writebacks        55621985                       # number of WriteClean hits
system.l2.WriteClean_hits::total             55621985                       # number of WriteClean hits
system.l2.UpgradeReq_hits::cpu.data          27809307                       # number of UpgradeReq hits
system.l2.UpgradeReq_hits::total             27809307                       # number of UpgradeReq hits
system.l2.ReadExReq_hits::cpu.data               1648                       # number of ReadExReq hits
system.l2.ReadExReq_hits::total                  1648                       # number of ReadExReq hits
system.l2.ReadSharedReq_hits::cpu.data        1413056                       # number of ReadSharedReq hits
system.l2.ReadSharedReq_hits::total           1413056                       # number of ReadSharedReq hits
system.l2.demand_hits::cpu.data               1414704                       # number of demand (read+write) hits
system.l2.demand_hits::total                  1414704                       # number of demand (read+write) hits
system.l2.overall_hits::cpu.data              1414704                       # number of overall hits
system.l2.overall_hits::total                 1414704                       # number of overall hits
system.l2.UpgradeReq_misses::cpu.data        27797975                       # number of UpgradeReq misses
system.l2.UpgradeReq_misses::total           27797975                       # number of UpgradeReq misses
system.l2.ReadExReq_misses::cpu.data            18619                       # number of ReadExReq misses
system.l2.ReadExReq_misses::total               18619                       # number of ReadExReq misses
system.l2.ReadCleanReq_misses::cpu.inst           354                       # number of ReadCleanReq misses
system.l2.ReadCleanReq_misses::total              354                       # number of ReadCleanReq misses
system.l2.ReadSharedReq_misses::cpu.data      1693496                       # number of ReadSharedReq misses
system.l2.ReadSharedReq_misses::total         1693496                       # number of ReadSharedReq misses
system.l2.demand_misses::cpu.inst                 354                       # number of demand (read+write) misses
system.l2.demand_misses::cpu.data             1712115                       # number of demand (read+write) misses
system.l2.demand_misses::total                1712469                       # number of demand (read+write) misses
system.l2.overall_misses::cpu.inst                354                       # number of overall misses
system.l2.overall_misses::cpu.data            1712115                       # number of overall misses
system.l2.overall_misses::total               1712469                       # number of overall misses
system.l2.UpgradeReq_miss_latency::cpu.data 3659954437500                       # number of UpgradeReq miss cycles
system.l2.UpgradeReq_miss_latency::total 3659954437500                       # number of UpgradeReq miss cycles
system.l2.ReadExReq_miss_latency::cpu.data  10181649500                       # number of ReadExReq miss cycles
system.l2.ReadExReq_miss_latency::total   10181649500                       # number of ReadExReq miss cycles
system.l2.ReadCleanReq_miss_latency::cpu.inst     90096500                       # number of ReadCleanReq miss cycles
system.l2.ReadCleanReq_miss_latency::total     90096500                       # number of ReadCleanReq miss cycles
system.l2.ReadSharedReq_miss_latency::cpu.data  53378414000                       # number of ReadSharedReq miss cycles
system.l2.ReadSharedReq_miss_latency::total  53378414000                       # number of ReadSharedReq miss cycles
system.l2.demand_miss_latency::cpu.inst      90096500                       # number of demand (read+write) miss cycles
system.l2.demand_miss_latency::cpu.data   63560063500                       # number of demand (read+write) miss cycles
system.l2.demand_miss_latency::total      63650160000                       # number of demand (read+write) miss cycles
system.l2.overall_miss_latency::cpu.inst     90096500                       # number of overall miss cycles
system.l2.overall_miss_latency::cpu.data  63560063500                       # number of overall miss cycles
system.l2.overall_miss_latency::total     63650160000                       # number of overall miss cycles
system.l2.WritebackDirty_accesses::writebacks         5655                       # number of WritebackDirty accesses(hits+misses)
system.l2.WritebackDirty_accesses::total         5655                       # number of WritebackDirty accesses(hits+misses)
system.l2.WritebackClean_accesses::writebacks           44                       # number of WritebackClean accesses(hits+misses)
system.l2.WritebackClean_accesses::total           44                       # number of WritebackClean accesses(hits+misses)
system.l2.WriteClean_accesses::writebacks     55621985                       # number of WriteClean accesses(hits+misses)
system.l2.WriteClean_accesses::total         55621985                       # number of WriteClean accesses(hits+misses)
system.l2.UpgradeReq_accesses::cpu.data      55607282                       # number of UpgradeReq accesses(hits+misses)
system.l2.UpgradeReq_accesses::total         55607282                       # number of UpgradeReq accesses(hits+misses)
system.l2.ReadExReq_accesses::cpu.data          20267                       # number of ReadExReq accesses(hits+misses)
system.l2.ReadExReq_accesses::total             20267                       # number of ReadExReq accesses(hits+misses)
system.l2.ReadCleanReq_accesses::cpu.inst          354                       # number of ReadCleanReq accesses(hits+misses)
system.l2.ReadCleanReq_accesses::total            354                       # number of ReadCleanReq accesses(hits+misses)
system.l2.ReadSharedReq_accesses::cpu.data      3106552                       # number of ReadSharedReq accesses(hits+misses)
system.l2.ReadSharedReq_accesses::total       3106552                       # number of ReadSharedReq accesses(hits+misses)
system.l2.demand_accesses::cpu.inst               354                       # number of demand (read+write) accesses
system.l2.demand_accesses::cpu.data           3126819                       # number of demand (read+write) accesses
system.l2.demand_accesses::total              3127173                       # number of demand (read+write) accesses
system.l2.overall_accesses::cpu.inst              354                       # number of overall (read+write) accesses
system.l2.overall_accesses::cpu.data          3126819                       # number of overall (read+write) accesses
system.l2.overall_accesses::total             3127173                       # number of overall (read+write) accesses
system.l2.UpgradeReq_miss_rate::cpu.data     0.499898                       # miss rate for UpgradeReq accesses
system.l2.UpgradeReq_miss_rate::total        0.499898                       # miss rate for UpgradeReq accesses
system.l2.ReadExReq_miss_rate::cpu.data      0.918686                       # miss rate for ReadExReq accesses
system.l2.ReadExReq_miss_rate::total         0.918686                       # miss rate for ReadExReq accesses
system.l2.ReadCleanReq_miss_rate::cpu.inst            1                       # miss rate for ReadCleanReq accesses
system.l2.ReadCleanReq_miss_rate::total             1                       # miss rate for ReadCleanReq accesses
system.l2.ReadSharedReq_miss_rate::cpu.data     0.545137                       # miss rate for ReadSharedReq accesses
system.l2.ReadSharedReq_miss_rate::total     0.545137                       # miss rate for ReadSharedReq accesses
system.l2.demand_miss_rate::cpu.inst                1                       # miss rate for demand accesses
system.l2.demand_miss_rate::cpu.data         0.547558                       # miss rate for demand accesses
system.l2.demand_miss_rate::total            0.547609                       # miss rate for demand accesses
system.l2.overall_miss_rate::cpu.inst               1                       # miss rate for overall accesses
system.l2.overall_miss_rate::cpu.data        0.547558                       # miss rate for overall accesses
system.l2.overall_miss_rate::total           0.547609                       # miss rate for overall accesses
system.l2.UpgradeReq_avg_miss_latency::cpu.data 131662.627853                       # average UpgradeReq miss latency
system.l2.UpgradeReq_avg_miss_latency::total 131662.627853                       # average UpgradeReq miss latency
system.l2.ReadExReq_avg_miss_latency::cpu.data 546841.908803                       # average ReadExReq miss latency
system.l2.ReadExReq_avg_miss_latency::total 546841.908803                       # average ReadExReq miss latency
system.l2.ReadCleanReq_avg_miss_latency::cpu.inst 254509.887006                       # average ReadCleanReq miss latency
system.l2.ReadCleanReq_avg_miss_latency::total 254509.887006                       # average ReadCleanReq miss latency
system.l2.ReadSharedReq_avg_miss_latency::cpu.data 31519.657560                       # average ReadSharedReq miss latency
system.l2.ReadSharedReq_avg_miss_latency::total 31519.657560                       # average ReadSharedReq miss latency
system.l2.demand_avg_miss_latency::cpu.inst 254509.887006                       # average overall miss latency
system.l2.demand_avg_miss_latency::cpu.data 37123.711608                       # average overall miss latency
system.l2.demand_avg_miss_latency::total 37168.649476                       # average overall miss latency
system.l2.overall_avg_miss_latency::cpu.inst 254509.887006                       # average overall miss latency
system.l2.overall_avg_miss_latency::cpu.data 37123.711608                       # average overall miss latency
system.l2.overall_avg_miss_latency::total 37168.649476                       # average overall miss latency
system.l2.blocked_cycles::no_mshrs                  0                       # number of cycles access was blocked
system.l2.blocked_cycles::no_targets                0                       # number of cycles access was blocked
system.l2.blocked::no_mshrs                         0                       # number of cycles access was blocked
system.l2.blocked::no_targets                       0                       # number of cycles access was blocked
system.l2.avg_blocked_cycles::no_mshrs            nan                       # average number of cycles each access was blocked
system.l2.avg_blocked_cycles::no_targets          nan                       # average number of cycles each access was blocked
system.l2.writebacks::writebacks                17100                       # number of writebacks
system.l2.writebacks::total                     17100                       # number of writebacks
system.l2.CleanEvict_mshr_misses::writebacks            2                       # number of CleanEvict MSHR misses
system.l2.CleanEvict_mshr_misses::total             2                       # number of CleanEvict MSHR misses
system.l2.UpgradeReq_mshr_misses::cpu.data     27797975                       # number of UpgradeReq MSHR misses
system.l2.UpgradeReq_mshr_misses::total      27797975                       # number of UpgradeReq MSHR misses
system.l2.ReadExReq_mshr_misses::cpu.data        18619                       # number of ReadExReq MSHR misses
system.l2.ReadExReq_mshr_misses::total          18619                       # number of ReadExReq MSHR misses
system.l2.ReadCleanReq_mshr_misses::cpu.inst          354                       # number of ReadCleanReq MSHR misses
system.l2.ReadCleanReq_mshr_misses::total          354                       # number of ReadCleanReq MSHR misses
system.l2.ReadSharedReq_mshr_misses::cpu.data      1693496                       # number of ReadSharedReq MSHR misses
system.l2.ReadSharedReq_mshr_misses::total      1693496                       # number of ReadSharedReq MSHR misses
system.l2.demand_mshr_misses::cpu.inst            354                       # number of demand (read+write) MSHR misses
system.l2.demand_mshr_misses::cpu.data        1712115                       # number of demand (read+write) MSHR misses
system.l2.demand_mshr_misses::total           1712469                       # number of demand (read+write) MSHR misses
system.l2.overall_mshr_misses::cpu.inst           354                       # number of overall MSHR misses
system.l2.overall_mshr_misses::cpu.data       1712115                       # number of overall MSHR misses
system.l2.overall_mshr_misses::total          1712469                       # number of overall MSHR misses
system.l2.UpgradeReq_mshr_miss_latency::cpu.data 3381974687500                       # number of UpgradeReq MSHR miss cycles
system.l2.UpgradeReq_mshr_miss_latency::total 3381974687500                       # number of UpgradeReq MSHR miss cycles
system.l2.ReadExReq_mshr_miss_latency::cpu.data   9995459500                       # number of ReadExReq MSHR miss cycles
system.l2.ReadExReq_mshr_miss_latency::total   9995459500                       # number of ReadExReq MSHR miss cycles
system.l2.ReadCleanReq_mshr_miss_latency::cpu.inst     86556500                       # number of ReadCleanReq MSHR miss cycles
system.l2.ReadCleanReq_mshr_miss_latency::total     86556500                       # number of ReadCleanReq MSHR miss cycles
system.l2.ReadSharedReq_mshr_miss_latency::cpu.data  36443454000                       # number of ReadSharedReq MSHR miss cycles
system.l2.ReadSharedReq_mshr_miss_latency::total  36443454000                       # number of ReadSharedReq MSHR miss cycles
system.l2.demand_mshr_miss_latency::cpu.inst     86556500                       # number of demand (read+write) MSHR miss cycles
system.l2.demand_mshr_miss_latency::cpu.data  46438913500                       # number of demand (read+write) MSHR miss cycles
system.l2.demand_mshr_miss_latency::total  46525470000                       # number of demand (read+write) MSHR miss cycles
system.l2.overall_mshr_miss_latency::cpu.inst     86556500                       # number of overall MSHR miss cycles
system.l2.overall_mshr_miss_latency::cpu.data  46438913500                       # number of overall MSHR miss cycles
system.l2.overall_mshr_miss_latency::total  46525470000                       # number of overall MSHR miss cycles
system.l2.CleanEvict_mshr_miss_rate::writebacks          inf                       # mshr miss rate for CleanEvict accesses
system.l2.CleanEvict_mshr_miss_rate::total          inf                       # mshr miss rate for CleanEvict accesses
system.l2.UpgradeReq_mshr_miss_rate::cpu.data     0.499898                       # mshr miss rate for UpgradeReq accesses
system.l2.UpgradeReq_mshr_miss_rate::total     0.499898                       # mshr miss rate for UpgradeReq accesses
system.l2.ReadExReq_mshr_miss_rate::cpu.data     0.918686                       # mshr miss rate for ReadExReq accesses
system.l2.ReadExReq_mshr_miss_rate::total     0.918686                       # mshr miss rate for ReadExReq accesses
system.l2.ReadCleanReq_mshr_miss_rate::cpu.inst            1                       # mshr miss rate for ReadCleanReq accesses
system.l2.ReadCleanReq_mshr_miss_rate::total            1                       # mshr miss rate for ReadCleanReq accesses
system.l2.ReadSharedReq_mshr_miss_rate::cpu.data     0.545137                       # mshr miss rate for ReadSharedReq accesses
system.l2.ReadSharedReq_mshr_miss_rate::total     0.545137                       # mshr miss rate for ReadSharedReq accesses
system.l2.demand_mshr_miss_rate::cpu.inst            1                       # mshr miss rate for demand accesses
system.l2.demand_mshr_miss_rate::cpu.data     0.547558                       # mshr miss rate for demand accesses
system.l2.demand_mshr_miss_rate::total       0.547609                       # mshr miss rate for demand accesses
system.l2.overall_mshr_miss_rate::cpu.inst            1                       # mshr miss rate for overall accesses
system.l2.overall_mshr_miss_rate::cpu.data     0.547558                       # mshr miss rate for overall accesses
system.l2.overall_mshr_miss_rate::total      0.547609                       # mshr miss rate for overall accesses
system.l2.UpgradeReq_avg_mshr_miss_latency::cpu.data 121662.627853                       # average UpgradeReq mshr miss latency
system.l2.UpgradeReq_avg_mshr_miss_latency::total 121662.627853                       # average UpgradeReq mshr miss latency
system.l2.ReadExReq_avg_mshr_miss_latency::cpu.data 536841.908803                       # average ReadExReq mshr miss latency
system.l2.ReadExReq_avg_mshr_miss_latency::total 536841.908803                       # average ReadExReq mshr miss latency
system.l2.ReadCleanReq_avg_mshr_miss_latency::cpu.inst 244509.887006                       # average ReadCleanReq mshr miss latency
system.l2.ReadCleanReq_avg_mshr_miss_latency::total 244509.887006                       # average ReadCleanReq mshr miss latency
system.l2.ReadSharedReq_avg_mshr_miss_latency::cpu.data 21519.657560                       # average ReadSharedReq mshr miss latency
system.l2.ReadSharedReq_avg_mshr_miss_latency::total 21519.657560                       # average ReadSharedReq mshr miss latency
system.l2.demand_avg_mshr_miss_latency::cpu.inst 244509.887006                       # average overall mshr miss latency
system.l2.demand_avg_mshr_miss_latency::cpu.data 27123.711608                       # average overall mshr miss latency
system.l2.demand_avg_mshr_miss_latency::total 27168.649476                       # average overall mshr miss latency
system.l2.overall_avg_mshr_miss_latency::cpu.inst 244509.887006                       # average overall mshr miss latency
system.l2.overall_avg_mshr_miss_latency::cpu.data 27123.711608                       # average overall mshr miss latency
system.l2.overall_avg_mshr_miss_latency::total 27168.649476                       # average overall mshr miss latency
system.l2.replacements                        1708806                       # number of replacements
system.l3.tags.pwrStateResidencyTicks::UNDEFINED 5979770636000                       # Cumulative time (in ticks) in various power states
system.l3.tags.tagsinuse                 14160.979171                       # Cycle average of tags in use
system.l3.tags.total_refs                    59029931                       # Total number of references to valid blocks.
system.l3.tags.sampled_refs                     17454                       # Sample count of references to valid blocks.
system.l3.tags.avg_refs                   3382.028819                       # Average number of references to valid blocks.
system.l3.tags.warmup_cycle                    418000                       # Cycle when the warmup percentage was hit.
system.l3.tags.occ_blocks::cpu.inst        147.149660                       # Average occupied blocks per requestor
system.l3.tags.occ_blocks::cpu.data      14013.829510                       # Average occupied blocks per requestor
system.l3.tags.occ_percent::cpu.inst         0.008981                       # Average percentage of cache occupancy
system.l3.tags.occ_percent::cpu.data         0.855336                       # Average percentage of cache occupancy
system.l3.tags.occ_percent::total            0.864318                       # Average percentage of cache occupancy
system.l3.tags.occ_task_id_blocks::1024         16384                       # Occupied blocks per task id
system.l3.tags.age_task_id_blocks_1024::0           27                       # Occupied blocks per task id
system.l3.tags.age_task_id_blocks_1024::1           35                       # Occupied blocks per task id
system.l3.tags.age_task_id_blocks_1024::2            1                       # Occupied blocks per task id
system.l3.tags.age_task_id_blocks_1024::3           10                       # Occupied blocks per task id
system.l3.tags.age_task_id_blocks_1024::4        16311                       # Occupied blocks per task id
system.l3.tags.occ_task_id_percent::1024            1                       # Percentage of cache occupancy per task id
system.l3.tags.tag_accesses                 236137178                       # Number of tag accesses
system.l3.tags.data_accesses                236137178                       # Number of data accesses
system.l3.pwrStateResidencyTicks::UNDEFINED 5979770636000                       # Cumulative time (in ticks) in various power states
system.l3.WritebackDirty_hits::writebacks        17100                       # number of WritebackDirty hits
system.l3.WritebackDirty_hits::total            17100                       # number of WritebackDirty hits
system.l3.WriteClean_hits::writebacks        27810961                       # number of WriteClean hits
system.l3.WriteClean_hits::total             27810961                       # number of WriteClean hits
system.l3.UpgradeReq_hits::cpu.data          13905470                       # number of UpgradeReq hits
system.l3.UpgradeReq_hits::total             13905470                       # number of UpgradeReq hits
system.l3.ReadSharedReq_hits::cpu.data        1693389                       # number of ReadSharedReq hits
system.l3.ReadSharedReq_hits::total           1693389                       # number of ReadSharedReq hits
system.l3.demand_hits::cpu.data               1693389                       # number of demand (read+write) hits
system.l3.demand_hits::total                  1693389                       # number of demand (read+write) hits
system.l3.overall_hits::cpu.data              1693389                       # number of overall hits
system.l3.overall_hits::total                 1693389                       # number of overall hits
system.l3.UpgradeReq_misses::cpu.data        13894130                       # number of UpgradeReq misses
system.l3.UpgradeReq_misses::total           13894130                       # number of UpgradeReq misses
system.l3.ReadExReq_misses::cpu.data            16994                       # number of ReadExReq misses
system.l3.ReadExReq_misses::total               16994                       # number of ReadExReq misses
system.l3.ReadSharedReq_misses::cpu.inst          354                       # number of ReadSharedReq misses
system.l3.ReadSharedReq_misses::cpu.data          107                       # number of ReadSharedReq misses
system.l3.ReadSharedReq_misses::total             461                       # number of ReadSharedReq misses
system.l3.demand_misses::cpu.inst                 354                       # number of demand (read+write) misses
system.l3.demand_misses::cpu.data               17101                       # number of demand (read+write) misses
system.l3.demand_misses::total                  17455                       # number of demand (read+write) misses
system.l3.overall_misses::cpu.inst                354                       # number of overall misses
system.l3.overall_misses::cpu.data              17101                       # number of overall misses
system.l3.overall_misses::total                 17455                       # number of overall misses
system.l3.UpgradeReq_miss_latency::cpu.data 2930376656000                       # number of UpgradeReq miss cycles
system.l3.UpgradeReq_miss_latency::total 2930376656000                       # number of UpgradeReq miss cycles
system.l3.ReadExReq_miss_latency::cpu.data   9603522000                       # number of ReadExReq miss cycles
system.l3.ReadExReq_miss_latency::total    9603522000                       # number of ReadExReq miss cycles
system.l3.ReadSharedReq_miss_latency::cpu.inst     82662500                       # number of ReadSharedReq miss cycles
system.l3.ReadSharedReq_miss_latency::cpu.data     34413500                       # number of ReadSharedReq miss cycles
system.l3.ReadSharedReq_miss_latency::total    117076000                       # number of ReadSharedReq miss cycles
system.l3.demand_miss_latency::cpu.inst      82662500                       # number of demand (read+write) miss cycles
system.l3.demand_miss_latency::cpu.data    9637935500                       # number of demand (read+write) miss cycles
system.l3.demand_miss_latency::total       9720598000                       # number of demand (read+write) miss cycles
system.l3.overall_miss_latency::cpu.inst     82662500                       # number of overall miss cycles
system.l3.overall_miss_latency::cpu.data   9637935500                       # number of overall miss cycles
system.l3.overall_miss_latency::total      9720598000                       # number of overall miss cycles
system.l3.WritebackDirty_accesses::writebacks        17100                       # number of WritebackDirty accesses(hits+misses)
system.l3.WritebackDirty_accesses::total        17100                       # number of WritebackDirty accesses(hits+misses)
system.l3.WriteClean_accesses::writebacks     27810961                       # number of WriteClean accesses(hits+misses)
system.l3.WriteClean_accesses::total         27810961                       # number of WriteClean accesses(hits+misses)
system.l3.UpgradeReq_accesses::cpu.data      27799600                       # number of UpgradeReq accesses(hits+misses)
system.l3.UpgradeReq_accesses::total         27799600                       # number of UpgradeReq accesses(hits+misses)
system.l3.ReadExReq_accesses::cpu.data          16994                       # number of ReadExReq accesses(hits+misses)
system.l3.ReadExReq_accesses::total             16994                       # number of ReadExReq accesses(hits+misses)
system.l3.ReadSharedReq_accesses::cpu.inst          354                       # number of ReadSharedReq accesses(hits+misses)
system.l3.ReadSharedReq_accesses::cpu.data      1693496                       # number of ReadSharedReq accesses(hits+misses)
system.l3.ReadSharedReq_accesses::total       1693850                       # number of ReadSharedReq accesses(hits+misses)
system.l3.demand_accesses::cpu.inst               354                       # number of demand (read+write) accesses
system.l3.demand_accesses::cpu.data           1710490                       # number of demand (read+write) accesses
system.l3.demand_accesses::total              1710844                       # number of demand (read+write) accesses
system.l3.overall_accesses::cpu.inst              354                       # number of overall (read+write) accesses
system.l3.overall_accesses::cpu.data          1710490                       # number of overall (read+write) accesses
system.l3.overall_accesses::total             1710844                       # number of overall (read+write) accesses
system.l3.UpgradeReq_miss_rate::cpu.data     0.499796                       # miss rate for UpgradeReq accesses
system.l3.UpgradeReq_miss_rate::total        0.499796                       # miss rate for UpgradeReq accesses
system.l3.ReadExReq_miss_rate::cpu.data             1                       # miss rate for ReadExReq accesses
system.l3.ReadExReq_miss_rate::total                1                       # miss rate for ReadExReq accesses
system.l3.ReadSharedReq_miss_rate::cpu.inst            1                       # miss rate for ReadSharedReq accesses
system.l3.ReadSharedReq_miss_rate::cpu.data     0.000063                       # miss rate for ReadSharedReq accesses
system.l3.ReadSharedReq_miss_rate::total     0.000272                       # miss rate for ReadSharedReq accesses
system.l3.demand_miss_rate::cpu.inst                1                       # miss rate for demand accesses
system.l3.demand_miss_rate::cpu.data         0.009998                       # miss rate for demand accesses
system.l3.demand_miss_rate::total            0.010203                       # miss rate for demand accesses
system.l3.overall_miss_rate::cpu.inst               1                       # miss rate for overall accesses
system.l3.overall_miss_rate::cpu.data        0.009998                       # miss rate for overall accesses
system.l3.overall_miss_rate::total           0.010203                       # miss rate for overall accesses
system.l3.UpgradeReq_avg_miss_latency::cpu.data 210907.531166                       # average UpgradeReq miss latency
system.l3.UpgradeReq_avg_miss_latency::total 210907.531166                       # average UpgradeReq miss latency
system.l3.ReadExReq_avg_miss_latency::cpu.data 565112.510298                       # average ReadExReq miss latency
system.l3.ReadExReq_avg_miss_latency::total 565112.510298                       # average ReadExReq miss latency
system.l3.ReadSharedReq_avg_miss_latency::cpu.inst 233509.887006                       # average ReadSharedReq miss latency
system.l3.ReadSharedReq_avg_miss_latency::cpu.data 321621.495327                       # average ReadSharedReq miss latency
system.l3.ReadSharedReq_avg_miss_latency::total 253960.954447                       # average ReadSharedReq miss latency
system.l3.demand_avg_miss_latency::cpu.inst 233509.887006                       # average overall miss latency
system.l3.demand_avg_miss_latency::cpu.data 563589.000643                       # average overall miss latency
system.l3.demand_avg_miss_latency::total 556894.757949                       # average overall miss latency
system.l3.overall_avg_miss_latency::cpu.inst 233509.887006                       # average overall miss latency
system.l3.overall_avg_miss_latency::cpu.data 563589.000643                       # average overall miss latency
system.l3.overall_avg_miss_latency::total 556894.757949                       # average overall miss latency
system.l3.blocked_cycles::no_mshrs                  0                       # number of cycles access was blocked
system.l3.blocked_cycles::no_targets                0                       # number of cycles access was blocked
system.l3.blocked::no_mshrs                         0                       # number of cycles access was blocked
system.l3.blocked::no_targets                       0                       # number of cycles access was blocked
system.l3.avg_blocked_cycles::no_mshrs            nan                       # average number of cycles each access was blocked
system.l3.avg_blocked_cycles::no_targets          nan                       # average number of cycles each access was blocked
system.l3.writebacks::writebacks                  744                       # number of writebacks
system.l3.writebacks::total                       744                       # number of writebacks
system.l3.UpgradeReq_mshr_misses::cpu.data     13894130                       # number of UpgradeReq MSHR misses
system.l3.UpgradeReq_mshr_misses::total      13894130                       # number of UpgradeReq MSHR misses
system.l3.ReadExReq_mshr_misses::cpu.data        16994                       # number of ReadExReq MSHR misses
system.l3.ReadExReq_mshr_misses::total          16994                       # number of ReadExReq MSHR misses
system.l3.ReadSharedReq_mshr_misses::cpu.inst          354                       # number of ReadSharedReq MSHR misses
system.l3.ReadSharedReq_mshr_misses::cpu.data          107                       # number of ReadSharedReq MSHR misses
system.l3.ReadSharedReq_mshr_misses::total          461                       # number of ReadSharedReq MSHR misses
system.l3.demand_mshr_misses::cpu.inst            354                       # number of demand (read+write) MSHR misses
system.l3.demand_mshr_misses::cpu.data          17101                       # number of demand (read+write) MSHR misses
system.l3.demand_mshr_misses::total             17455                       # number of demand (read+write) MSHR misses
system.l3.overall_mshr_misses::cpu.inst           354                       # number of overall MSHR misses
system.l3.overall_mshr_misses::cpu.data         17101                       # number of overall MSHR misses
system.l3.overall_mshr_misses::total            17455                       # number of overall MSHR misses
system.l3.UpgradeReq_mshr_miss_latency::cpu.data 2791435356000                       # number of UpgradeReq MSHR miss cycles
system.l3.UpgradeReq_mshr_miss_latency::total 2791435356000                       # number of UpgradeReq MSHR miss cycles
system.l3.ReadExReq_mshr_miss_latency::cpu.data   9433582000                       # number of ReadExReq MSHR miss cycles
system.l3.ReadExReq_mshr_miss_latency::total   9433582000                       # number of ReadExReq MSHR miss cycles
system.l3.ReadSharedReq_mshr_miss_latency::cpu.inst     79122500                       # number of ReadSharedReq MSHR miss cycles
system.l3.ReadSharedReq_mshr_miss_latency::cpu.data     33343500                       # number of ReadSharedReq MSHR miss cycles
system.l3.ReadSharedReq_mshr_miss_latency::total    112466000                       # number of ReadSharedReq MSHR miss cycles
system.l3.demand_mshr_miss_latency::cpu.inst     79122500                       # number of demand (read+write) MSHR miss cycles
system.l3.demand_mshr_miss_latency::cpu.data   9466925500                       # number of demand (read+write) MSHR miss cycles
system.l3.demand_mshr_miss_latency::total   9546048000                       # number of demand (read+write) MSHR miss cycles
system.l3.overall_mshr_miss_latency::cpu.inst     79122500                       # number of overall MSHR miss cycles
system.l3.overall_mshr_miss_latency::cpu.data   9466925500                       # number of overall MSHR miss cycles
system.l3.overall_mshr_miss_latency::total   9546048000                       # number of overall MSHR miss cycles
system.l3.UpgradeReq_mshr_miss_rate::cpu.data     0.499796                       # mshr miss rate for UpgradeReq accesses
system.l3.UpgradeReq_mshr_miss_rate::total     0.499796                       # mshr miss rate for UpgradeReq accesses
system.l3.ReadExReq_mshr_miss_rate::cpu.data            1                       # mshr miss rate for ReadExReq accesses
system.l3.ReadExReq_mshr_miss_rate::total            1                       # mshr miss rate for ReadExReq accesses
system.l3.ReadSharedReq_mshr_miss_rate::cpu.inst            1                       # mshr miss rate for ReadSharedReq accesses
system.l3.ReadSharedReq_mshr_miss_rate::cpu.data     0.000063                       # mshr miss rate for ReadSharedReq accesses
system.l3.ReadSharedReq_mshr_miss_rate::total     0.000272                       # mshr miss rate for ReadSharedReq accesses
system.l3.demand_mshr_miss_rate::cpu.inst            1                       # mshr miss rate for demand accesses
system.l3.demand_mshr_miss_rate::cpu.data     0.009998                       # mshr miss rate for demand accesses
system.l3.demand_mshr_miss_rate::total       0.010203                       # mshr miss rate for demand accesses
system.l3.overall_mshr_miss_rate::cpu.inst            1                       # mshr miss rate for overall accesses
system.l3.overall_mshr_miss_rate::cpu.data     0.009998                       # mshr miss rate for overall accesses
system.l3.overall_mshr_miss_rate::total      0.010203                       # mshr miss rate for overall accesses
system.l3.UpgradeReq_avg_mshr_miss_latency::cpu.data 200907.531166                       # average UpgradeReq mshr miss latency
system.l3.UpgradeReq_avg_mshr_miss_latency::total 200907.531166                       # average UpgradeReq mshr miss latency
system.l3.ReadExReq_avg_mshr_miss_latency::cpu.data 555112.510298                       # average ReadExReq mshr miss latency
system.l3.ReadExReq_avg_mshr_miss_latency::total 555112.510298                       # average ReadExReq mshr miss latency
system.l3.ReadSharedReq_avg_mshr_miss_latency::cpu.inst 223509.887006                       # average ReadSharedReq mshr miss latency
system.l3.ReadSharedReq_avg_mshr_miss_latency::cpu.data 311621.495327                       # average ReadSharedReq mshr miss latency
system.l3.ReadSharedReq_avg_mshr_miss_latency::total 243960.954447                       # average ReadSharedReq mshr miss latency
system.l3.demand_avg_mshr_miss_latency::cpu.inst 223509.887006                       # average overall mshr miss latency
system.l3.demand_avg_mshr_miss_latency::cpu.data 553589.000643                       # average overall mshr miss latency
system.l3.demand_avg_mshr_miss_latency::total 546894.757949                       # average overall mshr miss latency
system.l3.overall_avg_mshr_miss_latency::cpu.inst 223509.887006                       # average overall mshr miss latency
system.l3.overall_avg_mshr_miss_latency::cpu.data 553589.000643                       # average overall mshr miss latency
system.l3.overall_avg_mshr_miss_latency::total 546894.757949                       # average overall mshr miss latency
system.l3.replacements                           1070                       # number of replacements
system.membus.snoop_filter.tot_requests      13912373                       # Total number of requests made to the snoop filter.
system.membus.snoop_filter.hit_single_requests     13894919                       # Number of requests hitting in the snoop filter with a single holder of the requested data.
system.membus.snoop_filter.hit_multi_requests            0                       # Number of requests hitting in the snoop filter with multiple (>1) holders of the requested data.
system.membus.snoop_filter.tot_snoops               0                       # Total number of snoops made to the snoop filter.
system.membus.snoop_filter.hit_single_snoops            0                       # Number of snoops hitting in the snoop filter with a single holder of the requested data.
system.membus.snoop_filter.hit_multi_snoops            0                       # Number of snoops hitting in the snoop filter with multiple (>1) holders of the requested data.
system.membus.pwrStateResidencyTicks::UNDEFINED 5979770636000                       # Cumulative time (in ticks) in various power states
system.membus.trans_dist::ReadResp                461                       # Transaction distribution
system.membus.trans_dist::WritebackDirty          744                       # Transaction distribution
system.membus.trans_dist::WriteClean         13905511                       # Transaction distribution
system.membus.trans_dist::CleanEvict               44                       # Transaction distribution
system.membus.trans_dist::UpgradeReq         13894131                       # Transaction distribution
system.membus.trans_dist::ReadExReq             16993                       # Transaction distribution
system.membus.trans_dist::ReadExResp            16993                       # Transaction distribution
system.membus.trans_dist::ReadSharedReq           461                       # Transaction distribution
system.membus.pkt_count_system.l3.mem_side::system.mem_ctrls.port     27835338                       # Packet count per connected master and slave (bytes)
system.membus.pkt_count_system.l3.mem_side::total     27835338                       # Packet count per connected master and slave (bytes)
system.membus.pkt_count::total               27835338                       # Packet count per connected master and slave (bytes)
system.membus.pkt_size_system.l3.mem_side::system.mem_ctrls.port    891117376                       # Cumulative packet size per connected master and slave (bytes)
system.membus.pkt_size_system.l3.mem_side::total    891117376                       # Cumulative packet size per connected master and slave (bytes)
system.membus.pkt_size::total               891117376                       # Cumulative packet size per connected master and slave (bytes)
system.membus.snoops                                0                       # Total snoops (count)
system.membus.snoopTraffic                          0                       # Total snoop traffic (bytes)
system.membus.snoop_fanout::samples          13911585                       # Request fanout histogram
system.membus.snoop_fanout::mean                    0                       # Request fanout histogram
system.membus.snoop_fanout::stdev                   0                       # Request fanout histogram
system.membus.snoop_fanout::underflows              0      0.00%      0.00% # Request fanout histogram
system.membus.snoop_fanout::0                13911585    100.00%    100.00% # Request fanout histogram
system.membus.snoop_fanout::1                       0      0.00%    100.00% # Request fanout histogram
system.membus.snoop_fanout::overflows               0      0.00%    100.00% # Request fanout histogram
system.membus.snoop_fanout::min_value               0                       # Request fanout histogram
system.membus.snoop_fanout::max_value               0                       # Request fanout histogram
system.membus.snoop_fanout::total            13911585                       # Request fanout histogram
system.membus.reqLayer2.occupancy         95393100000                       # Layer occupancy (ticks)
system.membus.reqLayer2.utilization               1.6                       # Layer utilization (%)
system.membus.respLayer1.occupancy           89538500                       # Layer occupancy (ticks)
system.membus.respLayer1.utilization              0.0                       # Layer utilization (%)
system.tol2bus.snoop_filter.tot_requests     61860806                       # Total number of requests made to the snoop filter.
system.tol2bus.snoop_filter.hit_single_requests     58733633                       # Number of requests hitting in the snoop filter with a single holder of the requested data.
system.tol2bus.snoop_filter.hit_multi_requests            0                       # Number of requests hitting in the snoop filter with multiple (>1) holders of the requested data.
system.tol2bus.snoop_filter.tot_snoops       41717038                       # Total number of snoops made to the snoop filter.
system.tol2bus.snoop_filter.hit_single_snoops     41717038                       # Number of snoops hitting in the snoop filter with a single holder of the requested data.
system.tol2bus.snoop_filter.hit_multi_snoops            0                       # Number of snoops hitting in the snoop filter with multiple (>1) holders of the requested data.
system.tol2bus.pwrStateResidencyTicks::UNDEFINED 5979770636000                       # Cumulative time (in ticks) in various power states
system.tol2bus.trans_dist::ReadResp           3106906                       # Transaction distribution
system.tol2bus.trans_dist::WritebackDirty        22755                       # Transaction distribution
system.tol2bus.trans_dist::WritebackClean           44                       # Transaction distribution
system.tol2bus.trans_dist::WriteClean        97338457                       # Transaction distribution
system.tol2bus.trans_dist::CleanEvict         4812640                       # Transaction distribution
system.tol2bus.trans_dist::UpgradeReq        55607282                       # Transaction distribution
system.tol2bus.trans_dist::UpgradeResp       55607282                       # Transaction distribution
system.tol2bus.trans_dist::ReadExReq            20267                       # Transaction distribution
system.tol2bus.trans_dist::ReadExResp           20267                       # Transaction distribution
system.tol2bus.trans_dist::ReadCleanReq           354                       # Transaction distribution
system.tol2bus.trans_dist::ReadSharedReq      3106552                       # Transaction distribution
system.tol2bus.pkt_count_system.cpu.icache.mem_side::system.l2.cpu_side          752                       # Packet count per connected master and slave (bytes)
system.tol2bus.pkt_count_system.cpu.dcache.mem_side::system.l2.cpu_side    176216494                       # Packet count per connected master and slave (bytes)
system.tol2bus.pkt_count::total             176217246                       # Packet count per connected master and slave (bytes)
system.tol2bus.pkt_size_system.cpu.icache.mem_side::system.l2.cpu_side        25472                       # Cumulative packet size per connected master and slave (bytes)
system.tol2bus.pkt_size_system.cpu.dcache.mem_side::system.l2.cpu_side   3760285376                       # Cumulative packet size per connected master and slave (bytes)
system.tol2bus.pkt_size::total             3760310848                       # Cumulative packet size per connected master and slave (bytes)
system.tol2bus.snoops                        43425560                       # Total snoops (count)
system.tol2bus.snoopTraffic                2670948608                       # Total snoop traffic (bytes)
system.tol2bus.snoop_fanout::samples        102160015                       # Request fanout histogram
system.tol2bus.snoop_fanout::mean            0.408350                       # Request fanout histogram
system.tol2bus.snoop_fanout::stdev           0.491529                       # Request fanout histogram
system.tol2bus.snoop_fanout::underflows             0      0.00%      0.00% # Request fanout histogram
system.tol2bus.snoop_fanout::0               60442977     59.17%     59.17% # Request fanout histogram
system.tol2bus.snoop_fanout::1               41717038     40.83%    100.00% # Request fanout histogram
system.tol2bus.snoop_fanout::2                      0      0.00%    100.00% # Request fanout histogram
system.tol2bus.snoop_fanout::3                      0      0.00%    100.00% # Request fanout histogram
system.tol2bus.snoop_fanout::4                      0      0.00%    100.00% # Request fanout histogram
system.tol2bus.snoop_fanout::overflows              0      0.00%    100.00% # Request fanout histogram
system.tol2bus.snoop_fanout::min_value              0                       # Request fanout histogram
system.tol2bus.snoop_fanout::max_value              1                       # Request fanout histogram
system.tol2bus.snoop_fanout::total          102160015                       # Request fanout histogram
system.tol2bus.reqLayer0.occupancy       114369079500                       # Layer occupancy (ticks)
system.tol2bus.reqLayer0.utilization              1.9                       # Layer utilization (%)
system.tol2bus.respLayer0.occupancy            531000                       # Layer occupancy (ticks)
system.tol2bus.respLayer0.utilization             0.0                       # Layer utilization (%)
system.tol2bus.respLayer1.occupancy       32493869500                       # Layer occupancy (ticks)
system.tol2bus.respLayer1.utilization             0.5                       # Layer utilization (%)
system.tol3bus.snoop_filter.tot_requests     31218970                       # Total number of requests made to the snoop filter.
system.tol3bus.snoop_filter.hit_single_requests     29508126                       # Number of requests hitting in the snoop filter with a single holder of the requested data.
system.tol3bus.snoop_filter.hit_multi_requests            0                       # Number of requests hitting in the snoop filter with multiple (>1) holders of the requested data.
system.tol3bus.snoop_filter.tot_snoops       13905793                       # Total number of snoops made to the snoop filter.
system.tol3bus.snoop_filter.hit_single_snoops     13905793                       # Number of snoops hitting in the snoop filter with a single holder of the requested data.
system.tol3bus.snoop_filter.hit_multi_snoops            0                       # Number of snoops hitting in the snoop filter with multiple (>1) holders of the requested data.
system.tol3bus.pwrStateResidencyTicks::UNDEFINED 5979770636000                       # Cumulative time (in ticks) in various power states
system.tol3bus.trans_dist::ReadResp           1693850                       # Transaction distribution
system.tol3bus.trans_dist::WritebackDirty        17844                       # Transaction distribution
system.tol3bus.trans_dist::WriteClean        41716472                       # Transaction distribution
system.tol3bus.trans_dist::CleanEvict         1691752                       # Transaction distribution
system.tol3bus.trans_dist::UpgradeReq        27799600                       # Transaction distribution
system.tol3bus.trans_dist::UpgradeResp       27799600                       # Transaction distribution
system.tol3bus.trans_dist::ReadExReq            16994                       # Transaction distribution
system.tol3bus.trans_dist::ReadExResp           16994                       # Transaction distribution
system.tol3bus.trans_dist::ReadSharedReq      1693850                       # Transaction distribution
system.tol3bus.pkt_count_system.l2.mem_side::system.l3.cpu_side     88540375                       # Packet count per connected master and slave (bytes)
system.tol3bus.pkt_size_system.l2.mem_side::system.l3.cpu_side   1890489920                       # Cumulative packet size per connected master and slave (bytes)
system.tol3bus.snoops                        13906581                       # Total snoops (count)
system.tol3bus.snoopTraffic                 890000320                       # Total snoop traffic (bytes)
system.tol3bus.snoop_fanout::samples         43417025                       # Request fanout histogram
system.tol3bus.snoop_fanout::mean            0.320284                       # Request fanout histogram
system.tol3bus.snoop_fanout::stdev           0.466586                       # Request fanout histogram
system.tol3bus.snoop_fanout::underflows             0      0.00%      0.00% # Request fanout histogram
system.tol3bus.snoop_fanout::0               29511232     67.97%     67.97% # Request fanout histogram
system.tol3bus.snoop_fanout::1               13905793     32.03%    100.00% # Request fanout histogram
system.tol3bus.snoop_fanout::overflows              0      0.00%    100.00% # Request fanout histogram
system.tol3bus.snoop_fanout::min_value              0                       # Request fanout histogram
system.tol3bus.snoop_fanout::max_value              1                       # Request fanout histogram
system.tol3bus.snoop_fanout::total           43417025                       # Request fanout histogram
system.tol3bus.reqLayer0.occupancy        57343026500                       # Layer occupancy (ticks)
system.tol3bus.reqLayer0.utilization              1.0                       # Layer utilization (%)
system.tol3bus.respLayer0.occupancy       16466066000                       # Layer occupancy (ticks)
system.tol3bus.respLayer0.utilization             0.3                       # Layer utilization (%)

---------- End Simulation Statistics   ----------
